 xtb: 6.7.1 (edcfbbe)
          08282618283D

 66 70  0     0  0            999 V2000
   -6.2315   -5.7831    0.7721 C   0  0  0  0  0  0  0  0  0  0  0  0
   -5.1385   -4.9065    1.3358 C   0  0  0  0  0  0  0  0  0  0  0  0
   -4.8555   -4.8867    2.5266 O   0  0  0  0  0  0  0  0  0  0  0  0
   -4.5222   -4.1604    0.3868 N   0  0  0  0  0  0  0  0  0  0  0  0
   -3.4700   -3.2460    0.5102 C   0  0  0  0  0  0  0  0  0  0  0  0
   -3.0253   -2.6104   -0.6493 C   0  0  0  0  0  0  0  0  0  0  0  0
   -1.9897   -1.7020   -0.5969 C   0  0  0  0  0  0  0  0  0  0  0  0
   -1.3634   -1.4106    0.6100 C   0  0  0  0  0  0  0  0  0  0  0  0
   -0.2532   -0.3846    0.6736 C   0  0  0  0  0  0  0  0  0  0  0  0
   -0.9290    0.9688    0.6493 C   0  0  0  0  0  0  0  0  0  0  0  0
   -1.2964    1.5691   -0.5485 C   0  0  0  0  0  0  0  0  0  0  0  0
   -1.9620    2.7795   -0.5668 C   0  0  0  0  0  0  0  0  0  0  0  0
   -2.2868    3.4144    0.6284 C   0  0  0  0  0  0  0  0  0  0  0  0
   -2.9645    4.6374    0.6898 N   0  0  0  0  0  0  0  0  0  0  0  0
   -3.4112    5.4317   -0.3144 C   0  0  0  0  0  0  0  0  0  0  0  0
   -4.1087    6.6737    0.1870 C   0  0  0  0  0  0  0  0  0  0  0  0
   -3.2722    5.1878   -1.5051 O   0  0  0  0  0  0  0  0  0  0  0  0
   -1.9253    2.8132    1.8329 C   0  0  0  0  0  0  0  0  0  0  0  0
   -1.2542    1.6067    1.8392 C   0  0  0  0  0  0  0  0  0  0  0  0
    0.6745   -0.5423   -0.4414 N   0  0  0  0  0  0  0  0  0  0  0  0
    1.7341    0.4486   -0.4221 C   0  0  0  0  0  0  0  0  0  0  0  0
    2.5356    0.3381   -1.7218 C   0  0  0  0  0  0  0  0  0  0  0  0
    3.0898   -0.9932   -1.8208 N   0  0  0  0  0  0  0  0  0  0  0  0
    4.3637   -1.3007   -1.6141 C   0  0  0  0  0  0  0  0  0  0  0  0
    4.8158   -2.4412   -1.5283 O   0  0  0  0  0  0  0  0  0  0  0  0
    5.3437   -0.1725   -1.4935 C   0  0  0  0  0  0  0  0  0  0  0  0
    5.9769    0.3692   -2.4909 N   0  0  0  0  0  0  0  0  0  0  0  0
    6.9280    1.2022   -1.9700 O   0  0  0  0  0  0  0  0  0  0  0  0
    6.9107    1.1717   -0.6464 C   0  0  0  0  0  0  0  0  0  0  0  0
    7.8626    1.9808    0.1208 C   0  0  0  0  0  0  0  0  0  0  0  0
    5.8969    0.2990   -0.2597 C   0  0  0  0  0  0  0  0  0  0  0  0
    5.4512   -0.0182    1.0237 N   0  0  0  0  0  0  0  0  0  0  0  0
    4.4158   -0.6645    1.1234 O   0  0  0  0  0  0  0  0  0  0  0  0
    6.0960    0.3821    1.9813 O   0  0  0  0  0  0  0  0  0  0  0  0
    2.0706   -2.0226   -1.7725 C   0  0  0  0  0  0  0  0  0  0  0  0
    1.2671   -1.8694   -0.4820 C   0  0  0  0  0  0  0  0  0  0  0  0
   -1.8100   -2.0432    1.7606 C   0  0  0  0  0  0  0  0  0  0  0  0
   -2.8522   -2.9517    1.7207 C   0  0  0  0  0  0  0  0  0  0  0  0
   -5.8184   -6.4649    0.0334 H   0  0  0  0  0  0  0  0  0  0  0  0
   -6.9953   -5.1698    0.3012 H   0  0  0  0  0  0  0  0  0  0  0  0
   -6.6788   -6.3562    1.5787 H   0  0  0  0  0  0  0  0  0  0  0  0
   -4.8608   -4.2735   -0.5606 H   0  0  0  0  0  0  0  0  0  0  0  0
   -3.4964   -2.8309   -1.5952 H   0  0  0  0  0  0  0  0  0  0  0  0
   -1.6480   -1.2203   -1.4979 H   0  0  0  0  0  0  0  0  0  0  0  0
    0.2790   -0.4995    1.6379 H   0  0  0  0  0  0  0  0  0  0  0  0
   -1.0458    1.0869   -1.4788 H   0  0  0  0  0  0  0  0  0  0  0  0
   -2.2356    3.2366   -1.5032 H   0  0  0  0  0  0  0  0  0  0  0  0
   -3.1443    4.9632    1.6312 H   0  0  0  0  0  0  0  0  0  0  0  0
   -3.4231    7.2726    0.7810 H   0  0  0  0  0  0  0  0  0  0  0  0
   -4.9631    6.4004    0.8007 H   0  0  0  0  0  0  0  0  0  0  0  0
   -4.4492    7.2570   -0.6632 H   0  0  0  0  0  0  0  0  0  0  0  0
   -2.1699    3.2930    2.7688 H   0  0  0  0  0  0  0  0  0  0  0  0
   -0.9809    1.1552    2.7817 H   0  0  0  0  0  0  0  0  0  0  0  0
    1.2976    1.4444   -0.3431 H   0  0  0  0  0  0  0  0  0  0  0  0
    2.4124    0.2869    0.4372 H   0  0  0  0  0  0  0  0  0  0  0  0
    3.3303    1.0819   -1.7520 H   0  0  0  0  0  0  0  0  0  0  0  0
    1.8658    0.4902   -2.5707 H   0  0  0  0  0  0  0  0  0  0  0  0
    7.4421    2.2319    1.0913 H   0  0  0  0  0  0  0  0  0  0  0  0
    8.1328    2.8685   -0.4436 H   0  0  0  0  0  0  0  0  0  0  0  0
    8.7676    1.3980    0.2964 H   0  0  0  0  0  0  0  0  0  0  0  0
    2.5623   -2.9947   -1.8074 H   0  0  0  0  0  0  0  0  0  0  0  0
    1.4146   -1.8997   -2.6357 H   0  0  0  0  0  0  0  0  0  0  0  0
    1.9392   -2.0340    0.3799 H   0  0  0  0  0  0  0  0  0  0  0  0
    0.4767   -2.6193   -0.4551 H   0  0  0  0  0  0  0  0  0  0  0  0
   -1.3370   -1.8314    2.7085 H   0  0  0  0  0  0  0  0  0  0  0  0
   -3.1851   -3.4368    2.6233 H   0  0  0  0  0  0  0  0  0  0  0  0
  1  2  1  0  0  0  0
  2  3  2  0  0  0  0
  2  4  4  0  0  0  0
  4  5  1  0  0  0  0
  5  6  4  0  0  0  0
  6  7  4  0  0  0  0
  7  8  4  0  0  0  0
  8  9  1  0  0  0  0
  9 10  1  0  0  0  0
 10 11  4  0  0  0  0
 11 12  4  0  0  0  0
 12 13  4  0  0  0  0
 13 14  1  0  0  0  0
 14 15  4  0  0  0  0
 15 16  1  0  0  0  0
 15 17  2  0  0  0  0
 13 18  4  0  0  0  0
 10 19  4  0  0  0  0
 18 19  4  0  0  0  0
  9 20  1  0  0  0  0
 20 21  1  0  0  0  0
 21 22  1  0  0  0  0
 22 23  1  0  0  0  0
 23 24  4  0  0  0  0
 24 25  2  0  0  0  0
 24 26  1  0  0  0  0
 26 27  2  0  0  0  0
 27 28  1  0  0  0  0
 28 29  4  0  0  0  0
 29 30  1  0  0  0  0
 26 31  4  0  0  0  0
 29 31  4  0  0  0  0
 31 32  1  0  0  0  0
 32 33  4  0  0  0  0
 32 34  4  0  0  0  0
 33 34  1  0  0  0  0
 23 35  1  0  0  0  0
 20 36  1  0  0  0  0
 35 36  1  0  0  0  0
  8 37  4  0  0  0  0
  5 38  4  0  0  0  0
 37 38  4  0  0  0  0
  1 39  1  0  0  0  0
  1 40  1  0  0  0  0
  1 41  1  0  0  0  0
  4 42  1  0  0  0  0
  6 43  1  0  0  0  0
  7 44  1  0  0  0  0
  9 45  1  0  0  0  0
 11 46  1  0  0  0  0
 12 47  1  0  0  0  0
 14 48  1  0  0  0  0
 16 49  1  0  0  0  0
 16 50  1  0  0  0  0
 16 51  1  0  0  0  0
 18 52  1  0  0  0  0
 19 53  1  0  0  0  0
 21 54  1  0  0  0  0
 21 55  1  0  0  0  0
 22 56  1  0  0  0  0
 22 57  1  0  0  0  0
 30 58  1  0  0  0  0
 30 59  1  0  0  0  0
 30 60  1  0  0  0  0
 35 61  1  0  0  0  0
 35 62  1  0  0  0  0
 36 63  1  0  0  0  0
 36 64  1  0  0  0  0
 37 65  1  0  0  0  0
 38 66  1  0  0  0  0
M  END
