 xtb: 6.7.1 (edcfbbe)
          08282619123D

 66 70  0     0  0            999 V2000
   -6.8886   -4.7629   -1.1699 C   0  0  0  0  0  0  0  0  0  0  0  0
   -5.6742   -3.9809   -1.1787 N   0  0  0  0  0  0  0  0  0  0  0  0
   -5.3865   -3.0586   -0.2474 C   0  0  0  0  0  0  0  0  0  0  0  0
   -6.1343   -2.8111    0.7000 O   0  0  0  0  0  0  0  0  0  0  0  0
   -4.0855   -2.3529   -0.4229 C   0  0  0  0  0  0  0  0  0  0  0  0
   -3.5576   -2.0523   -1.6746 C   0  0  0  0  0  0  0  0  0  0  0  0
   -2.3542   -1.3783   -1.7768 C   0  0  0  0  0  0  0  0  0  0  0  0
   -1.6542   -0.9971   -0.6399 C   0  0  0  0  0  0  0  0  0  0  0  0
   -0.3631   -0.2174   -0.7661 C   0  0  0  0  0  0  0  0  0  0  0  0
   -0.7504    1.2356   -0.5956 C   0  0  0  0  0  0  0  0  0  0  0  0
   -0.8948    1.7870    0.6728 C   0  0  0  0  0  0  0  0  0  0  0  0
   -1.3075    3.0956    0.8306 C   0  0  0  0  0  0  0  0  0  0  0  0
   -1.5897    3.8807   -0.2847 C   0  0  0  0  0  0  0  0  0  0  0  0
   -2.0267    5.3019   -0.1807 C   0  0  0  0  0  0  0  0  0  0  0  0
   -1.7184    6.1387   -1.0318 O   0  0  0  0  0  0  0  0  0  0  0  0
   -2.7806    5.5954    0.8894 N   0  0  0  0  0  0  0  0  0  0  0  0
   -3.3058    6.9146    1.1530 C   0  0  0  0  0  0  0  0  0  0  0  0
   -1.4258    3.3346   -1.5536 C   0  0  0  0  0  0  0  0  0  0  0  0
   -1.0177    2.0236   -1.7074 C   0  0  0  0  0  0  0  0  0  0  0  0
    0.6115   -0.6313    0.2365 N   0  0  0  0  0  0  0  0  0  0  0  0
    1.8405    0.1382    0.1567 C   0  0  0  0  0  0  0  0  0  0  0  0
    2.7215   -0.2163    1.3574 C   0  0  0  0  0  0  0  0  0  0  0  0
    3.0083   -1.6325    1.3275 N   0  0  0  0  0  0  0  0  0  0  0  0
    4.1761   -2.1635    0.9898 C   0  0  0  0  0  0  0  0  0  0  0  0
    4.3857   -3.3602    0.8004 O   0  0  0  0  0  0  0  0  0  0  0  0
    5.3465   -1.2375    0.8459 C   0  0  0  0  0  0  0  0  0  0  0  0
    6.1396   -0.8910    1.8156 N   0  0  0  0  0  0  0  0  0  0  0  0
    7.1947   -0.2193    1.2630 O   0  0  0  0  0  0  0  0  0  0  0  0
    7.0810   -0.1606   -0.0543 C   0  0  0  0  0  0  0  0  0  0  0  0
    8.1122    0.5078   -0.8530 C   0  0  0  0  0  0  0  0  0  0  0  0
    5.8937   -0.7997   -0.4025 C   0  0  0  0  0  0  0  0  0  0  0  0
    5.3113   -0.9483   -1.6619 N   0  0  0  0  0  0  0  0  0  0  0  0
    4.1604   -1.3626   -1.7111 O   0  0  0  0  0  0  0  0  0  0  0  0
    5.9635   -0.6361   -2.6457 O   0  0  0  0  0  0  0  0  0  0  0  0
    1.8067   -2.4427    1.3305 C   0  0  0  0  0  0  0  0  0  0  0  0
    0.9334   -2.0466    0.1411 C   0  0  0  0  0  0  0  0  0  0  0  0
   -2.1911   -1.2828    0.6106 C   0  0  0  0  0  0  0  0  0  0  0  0
   -3.3951   -1.9488    0.7168 C   0  0  0  0  0  0  0  0  0  0  0  0
   -6.6591   -5.8234   -1.0676 H   0  0  0  0  0  0  0  0  0  0  0  0
   -7.4494   -4.6002   -2.0901 H   0  0  0  0  0  0  0  0  0  0  0  0
   -7.4859   -4.4387   -0.3193 H   0  0  0  0  0  0  0  0  0  0  0  0
   -4.9999   -4.1822   -1.9003 H   0  0  0  0  0  0  0  0  0  0  0  0
   -4.0932   -2.3130   -2.5746 H   0  0  0  0  0  0  0  0  0  0  0  0
   -1.9560   -1.1467   -2.7536 H   0  0  0  0  0  0  0  0  0  0  0  0
    0.0414   -0.3616   -1.7860 H   0  0  0  0  0  0  0  0  0  0  0  0
   -0.6666    1.1838    1.5359 H   0  0  0  0  0  0  0  0  0  0  0  0
   -1.3789    3.5096    1.8244 H   0  0  0  0  0  0  0  0  0  0  0  0
   -3.0532    4.8556    1.5176 H   0  0  0  0  0  0  0  0  0  0  0  0
   -2.9500    7.2764    2.1177 H   0  0  0  0  0  0  0  0  0  0  0  0
   -4.3957    6.8986    1.1513 H   0  0  0  0  0  0  0  0  0  0  0  0
   -2.9526    7.5775    0.3647 H   0  0  0  0  0  0  0  0  0  0  0  0
   -1.6248    3.9574   -2.4131 H   0  0  0  0  0  0  0  0  0  0  0  0
   -0.9014    1.6139   -2.6997 H   0  0  0  0  0  0  0  0  0  0  0  0
    1.6054    1.2025    0.1760 H   0  0  0  0  0  0  0  0  0  0  0  0
    2.3909   -0.0870   -0.7758 H   0  0  0  0  0  0  0  0  0  0  0  0
    3.6465    0.3577    1.3399 H   0  0  0  0  0  0  0  0  0  0  0  0
    2.1789    0.0000    2.2799 H   0  0  0  0  0  0  0  0  0  0  0  0
    7.6706    0.9381   -1.7490 H   0  0  0  0  0  0  0  0  0  0  0  0
    8.8494   -0.2285   -1.1763 H   0  0  0  0  0  0  0  0  0  0  0  0
    8.6165    1.2588   -0.2519 H   0  0  0  0  0  0  0  0  0  0  0  0
    1.2703   -2.2608    2.2633 H   0  0  0  0  0  0  0  0  0  0  0  0
    2.0992   -3.4906    1.2631 H   0  0  0  0  0  0  0  0  0  0  0  0
    1.4786   -2.2713   -0.7935 H   0  0  0  0  0  0  0  0  0  0  0  0
    0.0131   -2.6299    0.1580 H   0  0  0  0  0  0  0  0  0  0  0  0
   -1.6546   -0.9881    1.4969 H   0  0  0  0  0  0  0  0  0  0  0  0
   -3.8243   -2.1701    1.6825 H   0  0  0  0  0  0  0  0  0  0  0  0
  1  2  1  0  0  0  0
  2  3  4  0  0  0  0
  3  4  2  0  0  0  0
  3  5  1  0  0  0  0
  5  6  4  0  0  0  0
  6  7  4  0  0  0  0
  7  8  4  0  0  0  0
  8  9  1  0  0  0  0
  9 10  1  0  0  0  0
 10 11  4  0  0  0  0
 11 12  4  0  0  0  0
 12 13  4  0  0  0  0
 13 14  1  0  0  0  0
 14 15  2  0  0  0  0
 14 16  4  0  0  0  0
 16 17  1  0  0  0  0
 13 18  4  0  0  0  0
 10 19  4  0  0  0  0
 18 19  4  0  0  0  0
  9 20  1  0  0  0  0
 20 21  1  0  0  0  0
 21 22  1  0  0  0  0
 22 23  1  0  0  0  0
 23 24  4  0  0  0  0
 24 25  2  0  0  0  0
 24 26  1  0  0  0  0
 26 27  2  0  0  0  0
 27 28  1  0  0  0  0
 28 29  4  0  0  0  0
 29 30  1  0  0  0  0
 26 31  4  0  0  0  0
 29 31  4  0  0  0  0
 31 32  1  0  0  0  0
 32 33  4  0  0  0  0
 32 34  4  0  0  0  0
 33 34  1  0  0  0  0
 23 35  1  0  0  0  0
 20 36  1  0  0  0  0
 35 36  1  0  0  0  0
  8 37  4  0  0  0  0
  5 38  4  0  0  0  0
 37 38  4  0  0  0  0
  1 39  1  0  0  0  0
  1 40  1  0  0  0  0
  1 41  1  0  0  0  0
  2 42  1  0  0  0  0
  6 43  1  0  0  0  0
  7 44  1  0  0  0  0
  9 45  1  0  0  0  0
 11 46  1  0  0  0  0
 12 47  1  0  0  0  0
 16 48  1  0  0  0  0
 17 49  1  0  0  0  0
 17 50  1  0  0  0  0
 17 51  1  0  0  0  0
 18 52  1  0  0  0  0
 19 53  1  0  0  0  0
 21 54  1  0  0  0  0
 21 55  1  0  0  0  0
 22 56  1  0  0  0  0
 22 57  1  0  0  0  0
 30 58  1  0  0  0  0
 30 59  1  0  0  0  0
 30 60  1  0  0  0  0
 35 61  1  0  0  0  0
 35 62  1  0  0  0  0
 36 63  1  0  0  0  0
 36 64  1  0  0  0  0
 37 65  1  0  0  0  0
 38 66  1  0  0  0  0
M  END
