 xtb: 6.7.1 (edcfbbe)
          08282617583D

 19 18  0     0  0            999 V2000
   -1.9383    1.2129   -0.8511 C   0  0  0  0  0  0  0  0  0  0  0  0
   -1.1285    0.3299   -0.0364 N   0  0  0  0  0  0  0  0  0  0  0  0
   -1.6341   -1.0207    0.0662 C   0  0  0  0  0  0  0  0  0  0  0  0
    0.0361    0.7645    0.4513 C   0  0  0  0  0  0  0  0  0  0  0  0
    0.4400    1.9203    0.2763 O   0  0  0  0  0  0  0  0  0  0  0  0
    0.8999   -0.2103    1.2241 C   0  0  0  0  0  0  0  0  0  0  0  0
    1.5781   -1.4932    0.1183 S   0  0  0  0  0  0  0  0  0  0  0  0
    2.6897   -0.4692   -0.8830 C   0  0  0  0  0  0  0  0  0  0  0  0
   -2.9079    1.3698   -0.3782 H   0  0  0  0  0  0  0  0  0  0  0  0
   -2.0827    0.7744   -1.8386 H   0  0  0  0  0  0  0  0  0  0  0  0
   -1.4243    2.1672   -0.9460 H   0  0  0  0  0  0  0  0  0  0  0  0
   -1.3543   -1.5995   -0.8165 H   0  0  0  0  0  0  0  0  0  0  0  0
   -1.2489   -1.5289    0.9437 H   0  0  0  0  0  0  0  0  0  0  0  0
   -2.7197   -0.9756    0.1321 H   0  0  0  0  0  0  0  0  0  0  0  0
    1.7361    0.3369    1.6597 H   0  0  0  0  0  0  0  0  0  0  0  0
    0.3532   -0.7307    2.0066 H   0  0  0  0  0  0  0  0  0  0  0  0
    2.1383    0.3814   -1.2729 H   0  0  0  0  0  0  0  0  0  0  0  0
    3.0477   -1.0949   -1.6926 H   0  0  0  0  0  0  0  0  0  0  0  0
    3.5193   -0.1343   -0.2671 H   0  0  0  0  0  0  0  0  0  0  0  0
  1  2  1  0  0  0  0
  2  3  1  0  0  0  0
  2  4  4  0  0  0  0
  4  5  2  0  0  0  0
  4  6  1  0  0  0  0
  6  7  1  0  0  0  0
  7  8  1  0  0  0  0
  1  9  1  0  0  0  0
  1 10  1  0  0  0  0
  1 11  1  0  0  0  0
  3 12  1  0  0  0  0
  3 13  1  0  0  0  0
  3 14  1  0  0  0  0
  6 15  1  0  0  0  0
  6 16  1  0  0  0  0
  8 17  1  0  0  0  0
  8 18  1  0  0  0  0
  8 19  1  0  0  0  0
M  END
