 xtb: 6.7.1 (edcfbbe)
          08282618173D

 20 17  0     0  0            999 V2000
   -0.5205    0.3701    0.9356 C   0  0  0  0  0  0  0  0  0  0  0  0
   -0.2437   -0.4299   -0.1137 N   0  0  0  0  0  0  0  0  0  0  0  0
   -1.3277   -1.3230   -0.5242 C   0  0  0  0  0  0  0  0  0  0  0  0
    0.9343   -0.5039   -0.8523 C   0  0  0  0  0  0  0  0  0  0  0  0
    1.0172   -1.2638   -1.7908 O   0  0  0  0  0  0  0  0  0  0  0  0
    2.0696    0.3891   -0.4182 C   0  0  0  0  0  0  0  0  0  0  0  0
    3.4959    0.1086   -1.4467 Cl  0  0  0  0  0  0  0  0  0  0  0  0
   -1.5199    0.2100    1.3278 H   0  0  0  0  0  0  0  0  0  0  0  0
    5.1524    3.6948    1.8035 H   0  0  0  0  0  0  0  0  0  0  0  0
   -4.0173    1.5253    1.2373 H   0  0  0  0  0  0  0  0  0  0  0  0
   -0.9773   -1.9220   -1.3607 H   0  0  0  0  0  0  0  0  0  0  0  0
   -1.5982   -1.9739    0.3034 H   0  0  0  0  0  0  0  0  0  0  0  0
   -2.1892   -0.7359   -0.8332 H   0  0  0  0  0  0  0  0  0  0  0  0
    2.3655    0.1841    0.6114 H   0  0  0  0  0  0  0  0  0  0  0  0
    1.8053    1.4436   -0.5097 H   0  0  0  0  0  0  0  0  0  0  0  0
    0.3874    1.5184    1.6768 S   0  0  0  0  0  0  0  0  0  0  0  0
   -3.8389    1.4894    2.3039 C   0  0  0  0  0  0  0  0  0  0  0  0
   -2.8575    1.8938    2.5207 H   0  0  0  0  0  0  0  0  0  0  0  0
   -4.5870    2.0840    2.8112 H   0  0  0  0  0  0  0  0  0  0  0  0
   -3.8984    0.4671    2.6532 H   0  0  0  0  0  0  0  0  0  0  0  0
  1  2  4  0  0  0  0
  2  3  1  0  0  0  0
  2  4  1  0  0  0  0
  4  5  2  0  0  0  0
  4  6  1  0  0  0  0
  6  7  1  0  0  0  0
  1  8  1  0  0  0  0
  3 11  1  0  0  0  0
  3 12  1  0  0  0  0
  3 13  1  0  0  0  0
  6 14  1  0  0  0  0
  6 15  1  0  0  0  0
  1 16  2  0  0  0  0
 10 17  1  0  0  0  0
 17 18  1  0  0  0  0
 17 19  1  0  0  0  0
 17 20  1  0  0  0  0
M  CHG  1   1  -1
M  END
