 xtb: 6.7.1 (edcfbbe)
          08282618513D

 68 71  0     0  0            999 V2000
    5.4859    1.5322    1.4860 C   0  0  0  0  0  0  0  0  0  0  0  0
    5.6265   -0.2031    2.3977 Se  0  0  0  0  0  0  0  0  0  0  0  0
    5.9388   -1.3127    0.9148 C   0  0  0  0  0  0  0  0  0  0  0  0
    6.6889   -2.3681    1.1039 N   0  0  0  0  0  0  0  0  0  0  0  0
    6.7748   -3.0183   -0.0903 O   0  0  0  0  0  0  0  0  0  0  0  0
    6.0847   -2.3373   -1.0198 C   0  0  0  0  0  0  0  0  0  0  0  0
    6.0363   -2.8589   -2.4026 C   0  0  0  0  0  0  0  0  0  0  0  0
    5.4977   -1.2403   -0.4399 C   0  0  0  0  0  0  0  0  0  0  0  0
    4.6871   -0.2107   -1.1368 C   0  0  0  0  0  0  0  0  0  0  0  0
    5.1634    0.4335   -2.0744 O   0  0  0  0  0  0  0  0  0  0  0  0
    3.4357   -0.0297   -0.7025 N   0  0  0  0  0  0  0  0  0  0  0  0
    2.6062    0.9866   -1.3301 C   0  0  0  0  0  0  0  0  0  0  0  0
    1.5200    1.4211   -0.3497 C   0  0  0  0  0  0  0  0  0  0  0  0
    0.6268    0.3307    0.0265 N   0  0  0  0  0  0  0  0  0  0  0  0
   -0.6192    0.3156   -0.7285 C   0  0  0  0  0  0  0  0  0  0  0  0
   -1.4165    1.5837   -0.5187 C   0  0  0  0  0  0  0  0  0  0  0  0
   -2.2670    2.0373   -1.5194 C   0  0  0  0  0  0  0  0  0  0  0  0
   -3.0441    3.1614   -1.3209 C   0  0  0  0  0  0  0  0  0  0  0  0
   -2.9988    3.8480   -0.1114 C   0  0  0  0  0  0  0  0  0  0  0  0
   -3.8585    5.0552    0.0441 C   0  0  0  0  0  0  0  0  0  0  0  0
   -4.1479    5.7731   -0.9155 O   0  0  0  0  0  0  0  0  0  0  0  0
   -4.2993    5.2920    1.2889 N   0  0  0  0  0  0  0  0  0  0  0  0
   -5.1522    6.4058    1.6314 C   0  0  0  0  0  0  0  0  0  0  0  0
   -2.1350    3.4031    0.8860 C   0  0  0  0  0  0  0  0  0  0  0  0
   -1.3548    2.2814    0.6818 C   0  0  0  0  0  0  0  0  0  0  0  0
   -1.5139   -0.8187   -0.2745 C   0  0  0  0  0  0  0  0  0  0  0  0
   -1.7734   -1.0099    1.0780 C   0  0  0  0  0  0  0  0  0  0  0  0
   -2.6174   -2.0210    1.4897 C   0  0  0  0  0  0  0  0  0  0  0  0
   -3.2124   -2.8707    0.5604 C   0  0  0  0  0  0  0  0  0  0  0  0
   -4.1198   -3.9418    1.0615 C   0  0  0  0  0  0  0  0  0  0  0  0
   -4.8146   -3.7848    2.0668 O   0  0  0  0  0  0  0  0  0  0  0  0
   -4.1116   -5.0812    0.3526 N   0  0  0  0  0  0  0  0  0  0  0  0
   -4.9183   -6.2311    0.6878 C   0  0  0  0  0  0  0  0  0  0  0  0
   -2.9674   -2.6690   -0.7939 C   0  0  0  0  0  0  0  0  0  0  0  0
   -2.1272   -1.6489   -1.2025 C   0  0  0  0  0  0  0  0  0  0  0  0
    1.2992   -0.9624   -0.0289 C   0  0  0  0  0  0  0  0  0  0  0  0
    2.7761   -0.8246    0.3160 C   0  0  0  0  0  0  0  0  0  0  0  0
    4.5154    1.6424    1.0114 H   0  0  0  0  0  0  0  0  0  0  0  0
    6.2855    1.6072    0.7542 H   0  0  0  0  0  0  0  0  0  0  0  0
    5.6133    2.2855    2.2592 H   0  0  0  0  0  0  0  0  0  0  0  0
    6.9925   -3.3089   -2.6546 H   0  0  0  0  0  0  0  0  0  0  0  0
    5.2647   -3.6224   -2.4893 H   0  0  0  0  0  0  0  0  0  0  0  0
    5.8130   -2.0427   -3.0843 H   0  0  0  0  0  0  0  0  0  0  0  0
    3.2475    1.8244   -1.6139 H   0  0  0  0  0  0  0  0  0  0  0  0
    2.1606    0.5862   -2.2481 H   0  0  0  0  0  0  0  0  0  0  0  0
    0.9404    2.2318   -0.7914 H   0  0  0  0  0  0  0  0  0  0  0  0
    1.9923    1.8059    0.5601 H   0  0  0  0  0  0  0  0  0  0  0  0
   -0.4291    0.1925   -1.8121 H   0  0  0  0  0  0  0  0  0  0  0  0
   -2.3213    1.5111   -2.4608 H   0  0  0  0  0  0  0  0  0  0  0  0
   -3.6999    3.5270   -2.0971 H   0  0  0  0  0  0  0  0  0  0  0  0
   -4.0793    4.6359    2.0219 H   0  0  0  0  0  0  0  0  0  0  0  0
   -4.6775    7.0237    2.3933 H   0  0  0  0  0  0  0  0  0  0  0  0
   -6.1144    6.0505    2.0003 H   0  0  0  0  0  0  0  0  0  0  0  0
   -5.3071    6.9964    0.7300 H   0  0  0  0  0  0  0  0  0  0  0  0
   -2.0431    3.9466    1.8137 H   0  0  0  0  0  0  0  0  0  0  0  0
   -0.6776    1.9464    1.4501 H   0  0  0  0  0  0  0  0  0  0  0  0
   -1.3071   -0.3638    1.8031 H   0  0  0  0  0  0  0  0  0  0  0  0
   -2.8329   -2.1740    2.5366 H   0  0  0  0  0  0  0  0  0  0  0  0
   -3.4822   -5.1692   -0.4298 H   0  0  0  0  0  0  0  0  0  0  0  0
   -5.5638   -6.4963   -0.1492 H   0  0  0  0  0  0  0  0  0  0  0  0
   -4.2849   -7.0813    0.9413 H   0  0  0  0  0  0  0  0  0  0  0  0
   -5.5304   -5.9682    1.5491 H   0  0  0  0  0  0  0  0  0  0  0  0
   -3.4526   -3.2828   -1.5374 H   0  0  0  0  0  0  0  0  0  0  0  0
   -1.9498   -1.4995   -2.2576 H   0  0  0  0  0  0  0  0  0  0  0  0
    1.2106   -1.4236   -1.0270 H   0  0  0  0  0  0  0  0  0  0  0  0
    0.8254   -1.6323    0.6923 H   0  0  0  0  0  0  0  0  0  0  0  0
    3.2353   -1.8135    0.3612 H   0  0  0  0  0  0  0  0  0  0  0  0
    2.8776   -0.3522    1.3002 H   0  0  0  0  0  0  0  0  0  0  0  0
  1  2  1  0  0  0  0
  2  3  1  0  0  0  0
  3  4  2  0  0  0  0
  4  5  1  0  0  0  0
  5  6  1  0  0  0  0
  6  7  1  0  0  0  0
  3  8  4  0  0  0  0
  6  8  2  0  0  0  0
  8  9  1  0  0  0  0
  9 10  2  0  0  0  0
  9 11  4  0  0  0  0
 11 12  1  0  0  0  0
 12 13  1  0  0  0  0
 13 14  1  0  0  0  0
 14 15  1  0  0  0  0
 15 16  1  0  0  0  0
 16 17  4  0  0  0  0
 17 18  4  0  0  0  0
 18 19  4  0  0  0  0
 19 20  1  0  0  0  0
 20 21  2  0  0  0  0
 20 22  4  0  0  0  0
 22 23  1  0  0  0  0
 19 24  4  0  0  0  0
 16 25  4  0  0  0  0
 24 25  4  0  0  0  0
 15 26  1  0  0  0  0
 26 27  4  0  0  0  0
 27 28  4  0  0  0  0
 28 29  4  0  0  0  0
 29 30  1  0  0  0  0
 30 31  2  0  0  0  0
 30 32  4  0  0  0  0
 32 33  1  0  0  0  0
 29 34  4  0  0  0  0
 26 35  4  0  0  0  0
 34 35  4  0  0  0  0
 14 36  1  0  0  0  0
 11 37  1  0  0  0  0
 36 37  1  0  0  0  0
  1 38  1  0  0  0  0
  1 39  1  0  0  0  0
  1 40  1  0  0  0  0
  7 41  1  0  0  0  0
  7 42  1  0  0  0  0
  7 43  1  0  0  0  0
 12 44  1  0  0  0  0
 12 45  1  0  0  0  0
 13 46  1  0  0  0  0
 13 47  1  0  0  0  0
 15 48  1  0  0  0  0
 17 49  1  0  0  0  0
 18 50  1  0  0  0  0
 22 51  1  0  0  0  0
 23 52  1  0  0  0  0
 23 53  1  0  0  0  0
 23 54  1  0  0  0  0
 24 55  1  0  0  0  0
 25 56  1  0  0  0  0
 27 57  1  0  0  0  0
 28 58  1  0  0  0  0
 32 59  1  0  0  0  0
 33 60  1  0  0  0  0
 33 61  1  0  0  0  0
 33 62  1  0  0  0  0
 34 63  1  0  0  0  0
 35 64  1  0  0  0  0
 36 65  1  0  0  0  0
 36 66  1  0  0  0  0
 37 67  1  0  0  0  0
 37 68  1  0  0  0  0
M  END
