 xtb: 6.7.1 (edcfbbe)
          08282618243D

 66 70  0     0  0            999 V2000
    8.1472   -2.4879    1.2726 C   0  0  0  0  0  0  0  0  0  0  0  0
    7.0136   -1.6142    0.9571 C   0  0  0  0  0  0  0  0  0  0  0  0
    6.6521   -1.4220   -0.3018 O   0  0  0  0  0  0  0  0  0  0  0  0
    5.5856   -0.5704   -0.3782 N   0  0  0  0  0  0  0  0  0  0  0  0
    5.2595   -0.2417    0.8373 C   0  0  0  0  0  0  0  0  0  0  0  0
    4.2740    0.8305    1.1926 C   0  0  0  0  0  0  0  0  0  0  0  0
    4.7323    1.9439    1.4473 O   0  0  0  0  0  0  0  0  0  0  0  0
    2.9923    0.5004    1.2397 N   0  0  0  0  0  0  0  0  0  0  0  0
    2.4360   -0.7757    0.8529 C   0  0  0  0  0  0  0  0  0  0  0  0
    1.5395   -0.5809   -0.3707 C   0  0  0  0  0  0  0  0  0  0  0  0
    0.4864    0.3648   -0.0431 N   0  0  0  0  0  0  0  0  0  0  0  0
   -0.5077    0.4766   -1.1055 C   0  0  0  0  0  0  0  0  0  0  0  0
   -1.1448   -0.8606   -1.4142 C   0  0  0  0  0  0  0  0  0  0  0  0
   -1.5106   -1.7256   -0.3908 C   0  0  0  0  0  0  0  0  0  0  0  0
   -2.1401   -2.9232   -0.6744 C   0  0  0  0  0  0  0  0  0  0  0  0
   -2.4211   -3.2838   -1.9867 C   0  0  0  0  0  0  0  0  0  0  0  0
   -3.1318   -4.5687   -2.3103 C   0  0  0  0  0  0  0  0  0  0  0  0
   -4.5504   -4.2773   -2.7841 C   0  0  0  0  0  0  0  0  0  0  0  0
   -5.3195   -3.6541   -1.8845 N   0  0  0  0  0  0  0  0  0  0  0  0
   -4.9555   -4.5954   -3.8965 O   0  0  0  0  0  0  0  0  0  0  0  0
   -2.0566   -2.4160   -3.0088 C   0  0  0  0  0  0  0  0  0  0  0  0
   -1.4256   -1.2189   -2.7258 C   0  0  0  0  0  0  0  0  0  0  0  0
   -1.6414    1.3943   -0.7023 C   0  0  0  0  0  0  0  0  0  0  0  0
   -2.1288    1.3957    0.5982 C   0  0  0  0  0  0  0  0  0  0  0  0
   -3.1957    2.2021    0.9480 C   0  0  0  0  0  0  0  0  0  0  0  0
   -3.8105    3.0143    0.0034 C   0  0  0  0  0  0  0  0  0  0  0  0
   -4.9538    3.9191    0.3746 C   0  0  0  0  0  0  0  0  0  0  0  0
   -4.4523    5.3570    0.4218 C   0  0  0  0  0  0  0  0  0  0  0  0
   -3.6341    5.6266    1.4451 N   0  0  0  0  0  0  0  0  0  0  0  0
   -4.7655    6.1957   -0.4153 O   0  0  0  0  0  0  0  0  0  0  0  0
   -3.3245    3.0086   -1.2983 C   0  0  0  0  0  0  0  0  0  0  0  0
   -2.2524    2.2083   -1.6467 C   0  0  0  0  0  0  0  0  0  0  0  0
    1.0842    1.6496    0.2787 C   0  0  0  0  0  0  0  0  0  0  0  0
    1.9766    1.4973    1.5089 C   0  0  0  0  0  0  0  0  0  0  0  0
    6.1463   -0.8794    1.7609 C   0  0  0  0  0  0  0  0  0  0  0  0
    6.1012   -0.7969    3.1550 N   0  0  0  0  0  0  0  0  0  0  0  0
    5.1352   -0.2494    3.6630 O   0  0  0  0  0  0  0  0  0  0  0  0
    7.0209   -1.2867    3.7890 O   0  0  0  0  0  0  0  0  0  0  0  0
    9.0336   -1.8777    1.4482 H   0  0  0  0  0  0  0  0  0  0  0  0
    7.9525   -3.0340    2.1930 H   0  0  0  0  0  0  0  0  0  0  0  0
    8.3396   -3.1583    0.4409 H   0  0  0  0  0  0  0  0  0  0  0  0
    3.2320   -1.4827    0.6266 H   0  0  0  0  0  0  0  0  0  0  0  0
    1.8366   -1.1524    1.6856 H   0  0  0  0  0  0  0  0  0  0  0  0
    2.1567   -0.2258   -1.2155 H   0  0  0  0  0  0  0  0  0  0  0  0
    1.0915   -1.5360   -0.6455 H   0  0  0  0  0  0  0  0  0  0  0  0
   -0.0460    0.8701   -2.0319 H   0  0  0  0  0  0  0  0  0  0  0  0
   -1.2870   -1.4589    0.6289 H   0  0  0  0  0  0  0  0  0  0  0  0
   -2.4060   -3.5887    0.1336 H   0  0  0  0  0  0  0  0  0  0  0  0
   -3.1824   -5.2113   -1.4311 H   0  0  0  0  0  0  0  0  0  0  0  0
   -2.6192   -5.1015   -3.1121 H   0  0  0  0  0  0  0  0  0  0  0  0
   -6.2594   -3.3928   -2.1341 H   0  0  0  0  0  0  0  0  0  0  0  0
   -4.9428   -3.3550   -1.0014 H   0  0  0  0  0  0  0  0  0  0  0  0
   -2.2732   -2.6844   -4.0329 H   0  0  0  0  0  0  0  0  0  0  0  0
   -1.1479   -0.5590   -3.5351 H   0  0  0  0  0  0  0  0  0  0  0  0
   -1.6557    0.7718    1.3386 H   0  0  0  0  0  0  0  0  0  0  0  0
   -3.5624    2.1863    1.9637 H   0  0  0  0  0  0  0  0  0  0  0  0
   -5.7420    3.8661   -0.3768 H   0  0  0  0  0  0  0  0  0  0  0  0
   -5.3605    3.6467    1.3479 H   0  0  0  0  0  0  0  0  0  0  0  0
   -3.2267    6.5440    1.5250 H   0  0  0  0  0  0  0  0  0  0  0  0
   -3.3575    4.9077    2.0910 H   0  0  0  0  0  0  0  0  0  0  0  0
   -3.7879    3.6447   -2.0387 H   0  0  0  0  0  0  0  0  0  0  0  0
   -1.8881    2.2190   -2.6639 H   0  0  0  0  0  0  0  0  0  0  0  0
    1.6903    2.0353   -0.5619 H   0  0  0  0  0  0  0  0  0  0  0  0
    0.2954    2.3707    0.4926 H   0  0  0  0  0  0  0  0  0  0  0  0
    2.4750    2.4364    1.7502 H   0  0  0  0  0  0  0  0  0  0  0  0
    1.3814    1.1632    2.3612 H   0  0  0  0  0  0  0  0  0  0  0  0
  1  2  1  0  0  0  0
  2  3  4  0  0  0  0
  3  4  1  0  0  0  0
  4  5  2  0  0  0  0
  5  6  1  0  0  0  0
  6  7  2  0  0  0  0
  6  8  4  0  0  0  0
  8  9  1  0  0  0  0
  9 10  1  0  0  0  0
 10 11  1  0  0  0  0
 11 12  1  0  0  0  0
 12 13  1  0  0  0  0
 13 14  4  0  0  0  0
 14 15  4  0  0  0  0
 15 16  4  0  0  0  0
 16 17  1  0  0  0  0
 17 18  1  0  0  0  0
 18 19  4  0  0  0  0
 18 20  2  0  0  0  0
 16 21  4  0  0  0  0
 13 22  4  0  0  0  0
 21 22  4  0  0  0  0
 12 23  1  0  0  0  0
 23 24  4  0  0  0  0
 24 25  4  0  0  0  0
 25 26  4  0  0  0  0
 26 27  1  0  0  0  0
 27 28  1  0  0  0  0
 28 29  4  0  0  0  0
 28 30  2  0  0  0  0
 26 31  4  0  0  0  0
 23 32  4  0  0  0  0
 31 32  4  0  0  0  0
 11 33  1  0  0  0  0
  8 34  1  0  0  0  0
 33 34  1  0  0  0  0
  2 35  4  0  0  0  0
  5 35  4  0  0  0  0
 35 36  1  0  0  0  0
 36 37  4  0  0  0  0
 36 38  4  0  0  0  0
 37 38  1  0  0  0  0
  1 39  1  0  0  0  0
  1 40  1  0  0  0  0
  1 41  1  0  0  0  0
  9 42  1  0  0  0  0
  9 43  1  0  0  0  0
 10 44  1  0  0  0  0
 10 45  1  0  0  0  0
 12 46  1  0  0  0  0
 14 47  1  0  0  0  0
 15 48  1  0  0  0  0
 17 49  1  0  0  0  0
 17 50  1  0  0  0  0
 19 51  1  0  0  0  0
 19 52  1  0  0  0  0
 21 53  1  0  0  0  0
 22 54  1  0  0  0  0
 24 55  1  0  0  0  0
 25 56  1  0  0  0  0
 27 57  1  0  0  0  0
 27 58  1  0  0  0  0
 29 59  1  0  0  0  0
 29 60  1  0  0  0  0
 31 61  1  0  0  0  0
 32 62  1  0  0  0  0
 33 63  1  0  0  0  0
 33 64  1  0  0  0  0
 34 65  1  0  0  0  0
 34 66  1  0  0  0  0
M  END
