 xtb: 6.7.1 (edcfbbe)
          08282615403D

 58 62  0     0  0            999 V2000
    7.1385   -1.8092   -0.6556 C   0  0  0  0  0  0  0  0  0  0  0  0
    6.1468   -0.8687   -1.2075 C   0  0  0  0  0  0  0  0  0  0  0  0
    6.0237   -0.7225   -2.5193 O   0  0  0  0  0  0  0  0  0  0  0  0
    5.0696    0.2093   -2.8058 N   0  0  0  0  0  0  0  0  0  0  0  0
    4.5770    0.6352   -1.6817 C   0  0  0  0  0  0  0  0  0  0  0  0
    3.6485    1.8116   -1.5622 C   0  0  0  0  0  0  0  0  0  0  0  0
    4.1241    2.9290   -1.5771 O   0  0  0  0  0  0  0  0  0  0  0  0
    2.3508    1.5229   -1.4309 N   0  0  0  0  0  0  0  0  0  0  0  0
    1.8389    0.1734   -1.3006 C   0  0  0  0  0  0  0  0  0  0  0  0
    0.3196    0.2041   -1.4832 C   0  0  0  0  0  0  0  0  0  0  0  0
   -0.3626    1.0208   -0.4924 N   0  0  0  0  0  0  0  0  0  0  0  0
   -0.8627    0.2627    0.6495 C   0  0  0  0  0  0  0  0  0  0  0  0
   -1.6379    1.1600    1.5897 C   0  0  0  0  0  0  0  0  0  0  0  0
   -1.4725    1.0563    2.9642 C   0  0  0  0  0  0  0  0  0  0  0  0
   -2.2140    1.8339    3.8317 C   0  0  0  0  0  0  0  0  0  0  0  0
   -3.1407    2.7408    3.3304 C   0  0  0  0  0  0  0  0  0  0  0  0
   -3.8536    3.4943    4.2131 O   0  0  0  0  0  0  0  0  0  0  0  0
   -3.3107    2.8528    1.9554 C   0  0  0  0  0  0  0  0  0  0  0  0
   -2.5691    2.0642    1.0973 C   0  0  0  0  0  0  0  0  0  0  0  0
   -1.8090   -0.8370    0.2230 C   0  0  0  0  0  0  0  0  0  0  0  0
   -1.8662   -2.0264    0.9391 C   0  0  0  0  0  0  0  0  0  0  0  0
   -2.7675   -3.0135    0.6032 C   0  0  0  0  0  0  0  0  0  0  0  0
   -3.6470   -2.8485   -0.4711 C   0  0  0  0  0  0  0  0  0  0  0  0
   -4.4886   -3.8826   -0.8174 N   0  0  0  0  0  0  0  0  0  0  0  0
   -5.6154   -3.6946   -1.6972 C   0  0  0  0  0  0  0  0  0  0  0  0
   -3.5876   -1.6523   -1.1894 C   0  0  0  0  0  0  0  0  0  0  0  0
   -2.6855   -0.6674   -0.8404 C   0  0  0  0  0  0  0  0  0  0  0  0
    0.4582    2.1484   -0.0588 C   0  0  0  0  0  0  0  0  0  0  0  0
    1.4034    2.5888   -1.1656 C   0  0  0  0  0  0  0  0  0  0  0  0
    5.2308   -0.0285   -0.5957 C   0  0  0  0  0  0  0  0  0  0  0  0
    4.9498    0.0922    0.7817 N   0  0  0  0  0  0  0  0  0  0  0  0
    3.9225    0.6603    1.0928 O   0  0  0  0  0  0  0  0  0  0  0  0
    5.7338   -0.4124    1.5598 O   0  0  0  0  0  0  0  0  0  0  0  0
    7.4005   -2.5541   -1.4019 H   0  0  0  0  0  0  0  0  0  0  0  0
    6.7484   -2.2781    0.2453 H   0  0  0  0  0  0  0  0  0  0  0  0
    8.0380   -1.2618   -0.3715 H   0  0  0  0  0  0  0  0  0  0  0  0
    2.0799   -0.2231   -0.3053 H   0  0  0  0  0  0  0  0  0  0  0  0
    2.2934   -0.4703   -2.0592 H   0  0  0  0  0  0  0  0  0  0  0  0
   -0.0720   -0.8134   -1.4389 H   0  0  0  0  0  0  0  0  0  0  0  0
    0.0956    0.6039   -2.4786 H   0  0  0  0  0  0  0  0  0  0  0  0
   -0.0274   -0.1895    1.2192 H   0  0  0  0  0  0  0  0  0  0  0  0
   -0.7520    0.3592    3.3671 H   0  0  0  0  0  0  0  0  0  0  0  0
   -2.0877    1.7564    4.8998 H   0  0  0  0  0  0  0  0  0  0  0  0
   -4.4520    4.0786    3.7322 H   0  0  0  0  0  0  0  0  0  0  0  0
   -4.0294    3.5591    1.5590 H   0  0  0  0  0  0  0  0  0  0  0  0
   -2.7055    2.1549    0.0315 H   0  0  0  0  0  0  0  0  0  0  0  0
   -1.1995   -2.1804    1.7760 H   0  0  0  0  0  0  0  0  0  0  0  0
   -2.7991   -3.9315    1.1738 H   0  0  0  0  0  0  0  0  0  0  0  0
   -4.6274   -4.5644   -0.0869 H   0  0  0  0  0  0  0  0  0  0  0  0
   -5.2642   -3.4030   -2.6883 H   0  0  0  0  0  0  0  0  0  0  0  0
   -6.1484   -4.6385   -1.7902 H   0  0  0  0  0  0  0  0  0  0  0  0
   -6.3144   -2.9294   -1.3352 H   0  0  0  0  0  0  0  0  0  0  0  0
   -4.2509   -1.4859   -2.0231 H   0  0  0  0  0  0  0  0  0  0  0  0
   -2.6494    0.2478   -1.4100 H   0  0  0  0  0  0  0  0  0  0  0  0
    1.0603    1.8903    0.8278 H   0  0  0  0  0  0  0  0  0  0  0  0
   -0.2013    2.9762    0.2140 H   0  0  0  0  0  0  0  0  0  0  0  0
    0.8447    2.8317   -2.0750 H   0  0  0  0  0  0  0  0  0  0  0  0
    1.9746    3.4679   -0.8610 H   0  0  0  0  0  0  0  0  0  0  0  0
  1  2  1  0  0  0  0
  2  3  4  0  0  0  0
  3  4  1  0  0  0  0
  4  5  2  0  0  0  0
  5  6  1  0  0  0  0
  6  7  2  0  0  0  0
  6  8  4  0  0  0  0
  8  9  1  0  0  0  0
  9 10  1  0  0  0  0
 10 11  1  0  0  0  0
 11 12  1  0  0  0  0
 12 13  1  0  0  0  0
 13 14  4  0  0  0  0
 14 15  4  0  0  0  0
 15 16  4  0  0  0  0
 16 17  1  0  0  0  0
 16 18  4  0  0  0  0
 13 19  4  0  0  0  0
 18 19  4  0  0  0  0
 12 20  1  0  0  0  0
 20 21  4  0  0  0  0
 21 22  4  0  0  0  0
 22 23  4  0  0  0  0
 23 24  1  0  0  0  0
 24 25  1  0  0  0  0
 23 26  4  0  0  0  0
 20 27  4  0  0  0  0
 26 27  4  0  0  0  0
 11 28  1  0  0  0  0
  8 29  1  0  0  0  0
 28 29  1  0  0  0  0
  2 30  4  0  0  0  0
  5 30  4  0  0  0  0
 30 31  1  0  0  0  0
 31 32  4  0  0  0  0
 31 33  4  0  0  0  0
 32 33  1  0  0  0  0
  1 34  1  0  0  0  0
  1 35  1  0  0  0  0
  1 36  1  0  0  0  0
  9 37  1  0  0  0  0
  9 38  1  0  0  0  0
 10 39  1  0  0  0  0
 10 40  1  0  0  0  0
 12 41  1  0  0  0  0
 14 42  1  0  0  0  0
 15 43  1  0  0  0  0
 17 44  1  0  0  0  0
 18 45  1  0  0  0  0
 19 46  1  0  0  0  0
 21 47  1  0  0  0  0
 22 48  1  0  0  0  0
 24 49  1  0  0  0  0
 25 50  1  0  0  0  0
 25 51  1  0  0  0  0
 25 52  1  0  0  0  0
 26 53  1  0  0  0  0
 27 54  1  0  0  0  0
 28 55  1  0  0  0  0
 28 56  1  0  0  0  0
 29 57  1  0  0  0  0
 29 58  1  0  0  0  0
M  END
