 xtb: 6.7.1 (edcfbbe)
          08282617573D

 15 14  0     0  0            999 V2000
   -1.7470   -0.6377    0.4016 C   0  0  0  0  0  0  0  0  0  0  0  0
   -0.4405   -0.0658    0.1472 N   0  0  0  0  0  0  0  0  0  0  0  0
   -0.4706    1.2740   -0.3948 C   0  0  0  0  0  0  0  0  0  0  0  0
    0.6499   -0.8119    0.3263 C   0  0  0  0  0  0  0  0  0  0  0  0
    0.6088   -1.9632    0.7676 O   0  0  0  0  0  0  0  0  0  0  0  0
    2.0026   -0.2034   -0.0139 C   0  0  0  0  0  0  0  0  0  0  0  0
    2.1415    0.0653   -1.7780 Cl  0  0  0  0  0  0  0  0  0  0  0  0
   -2.2534   -0.0702    1.1822 H   0  0  0  0  0  0  0  0  0  0  0  0
   -2.3445   -0.6140   -0.5096 H   0  0  0  0  0  0  0  0  0  0  0  0
   -1.6192   -1.6675    0.7279 H   0  0  0  0  0  0  0  0  0  0  0  0
    0.4694    1.7923   -0.2413 H   0  0  0  0  0  0  0  0  0  0  0  0
   -0.6817    1.2461   -1.4658 H   0  0  0  0  0  0  0  0  0  0  0  0
   -1.2642    1.8270    0.1055 H   0  0  0  0  0  0  0  0  0  0  0  0
    2.7747   -0.9204    0.2623 H   0  0  0  0  0  0  0  0  0  0  0  0
    2.1741    0.7495    0.4829 H   0  0  0  0  0  0  0  0  0  0  0  0
  1  2  1  0  0  0  0
  2  3  1  0  0  0  0
  2  4  4  0  0  0  0
  4  5  2  0  0  0  0
  4  6  1  0  0  0  0
  6  7  1  0  0  0  0
  1  8  1  0  0  0  0
  1  9  1  0  0  0  0
  1 10  1  0  0  0  0
  3 11  1  0  0  0  0
  3 12  1  0  0  0  0
  3 13  1  0  0  0  0
  6 14  1  0  0  0  0
  6 15  1  0  0  0  0
M  END
