 xtb: 6.7.1 (edcfbbe)
          08282623263D

 19 18  0     0  0            999 V2000
   -1.4386   -0.8398   -0.6019 C   0  0  0  0  0  0  0  0  0  0  0  0
   -0.0368   -0.5090   -0.4607 N   0  0  0  0  0  0  0  0  0  0  0  0
    0.4136   -0.2899    0.8925 C   0  0  0  0  0  0  0  0  0  0  0  0
    0.7569   -0.4534   -1.5348 C   0  0  0  0  0  0  0  0  0  0  0  0
    0.3259   -0.5961   -2.6879 O   0  0  0  0  0  0  0  0  0  0  0  0
    2.2053   -0.2564   -1.3037 C   0  0  0  0  0  0  0  0  0  0  0  0
    2.8464    0.6722   -1.8625 N   0  0  0  0  0  0  0  0  0  0  0  0
    4.1464    0.8432   -1.7763 O   0  0  0  0  0  0  0  0  0  0  0  0
   -1.6632   -1.7267   -0.0098 H   0  0  0  0  0  0  0  0  0  0  0  0
   -1.6350   -1.0346   -1.6540 H   0  0  0  0  0  0  0  0  0  0  0  0
   -2.0526   -0.0052   -0.2631 H   0  0  0  0  0  0  0  0  0  0  0  0
    0.5225   -1.2417    1.4159 H   0  0  0  0  0  0  0  0  0  0  0  0
   -0.3154    0.3343    1.4078 H   0  0  0  0  0  0  0  0  0  0  0  0
    1.3789    0.2115    0.8870 H   0  0  0  0  0  0  0  0  0  0  0  0
    4.1403   -2.2642   -1.6022 C   0  0  0  0  0  0  0  0  0  0  0  0
    2.9754   -1.6939   -0.3356 S   0  0  0  0  0  0  0  0  0  0  0  0
    4.7317   -1.4094   -1.9229 H   0  0  0  0  0  0  0  0  0  0  0  0
    4.7663   -3.0204   -1.1426 H   0  0  0  0  0  0  0  0  0  0  0  0
    3.5768   -2.6712   -2.4379 H   0  0  0  0  0  0  0  0  0  0  0  0
  1  2  1  0  0  0  0
  2  3  1  0  0  0  0
  2  4  4  0  0  0  0
  4  5  2  0  0  0  0
  4  6  1  0  0  0  0
  6  7  2  0  0  0  0
  7  8  4  0  0  0  0
  1  9  1  0  0  0  0
  1 10  1  0  0  0  0
  1 11  1  0  0  0  0
  3 12  1  0  0  0  0
  3 13  1  0  0  0  0
  3 14  1  0  0  0  0
  6 16  1  0  0  0  0
 15 16  1  0  0  0  0
 15 17  1  0  0  0  0
 15 18  1  0  0  0  0
 15 19  1  0  0  0  0
M  CHG  1   1  -1
M  END
