
     RDKit          3D

 58 60  0  0  0  0  0  0  0  0999 V2000
  -30.8507   16.5366    1.7161 C   0  0  0  0  0  0  0  0  0  0  0  0
  -30.1591   15.2552    1.8266 N   0  0  0  0  0  0  0  0  0  0  0  0
  -29.3572   14.7234    0.7835 C   0  0  0  0  0  0  0  0  0  0  0  0
  -29.2207   15.3635   -0.2909 O   0  0  0  0  0  0  0  0  0  0  0  0
  -28.6633   13.4438    0.8867 C   0  0  0  0  0  0  0  0  0  0  0  0
  -27.9127   13.0296   -0.1938 C   0  0  0  0  0  0  0  0  0  0  0  0
  -27.2250   11.8123   -0.1543 C   0  0  0  0  0  0  0  0  0  0  0  0
  -27.2836   11.0038    0.9629 C   0  0  0  0  0  0  0  0  0  0  0  0
  -26.5911    9.7102    1.0860 C   0  0  0  0  0  0  0  0  0  0  0  0
  -25.8007    9.3748   -0.1340 C   0  0  0  0  0  0  0  0  0  0  0  0
  -24.4634    9.6246   -0.2881 C   0  0  0  0  0  0  0  0  0  0  0  0
  -23.7969    9.2881   -1.4747 C   0  0  0  0  0  0  0  0  0  0  0  0
  -24.4506    8.6954   -2.5318 C   0  0  0  0  0  0  0  0  0  0  0  0
  -23.7985    8.3290   -3.7818 C   0  0  0  0  0  0  0  0  0  0  0  0
  -24.4605    7.7815   -4.7250 O   0  0  0  0  0  0  0  0  0  0  0  0
  -22.4252    8.5482   -4.0300 N   0  0  0  0  0  0  0  0  0  0  0  0
  -21.9162    8.1236   -5.3393 C   0  0  0  0  0  0  0  0  0  0  0  0
  -25.7960    8.4422   -2.3804 C   0  0  0  0  0  0  0  0  0  0  0  0
  -26.4341    8.7701   -1.2310 C   0  0  0  0  0  0  0  0  0  0  0  0
  -25.9115    9.4916    2.3204 N   0  0  0  0  0  0  0  0  0  0  0  0
  -24.8541   10.3297    2.8258 C   0  0  0  0  0  0  0  0  0  0  0  0
  -24.7909   11.5246    2.4667 O   0  0  0  0  0  0  0  0  0  0  0  0
  -23.9212    9.6618    3.7539 C   0  0  0  0  0  0  0  0  0  0  0  0
  -23.7819    8.2134    3.3948 N   0  0  0  0  0  0  0  0  0  0  0  0
  -22.4363    7.7913    3.3799 C   0  0  0  0  0  0  0  0  0  0  0  0
  -21.6295    8.7842    3.6739 O   0  0  0  0  0  0  0  0  0  0  0  0
  -21.8061    6.5481    3.1189 C   0  0  0  0  0  0  0  0  0  0  0  0
  -22.2400    5.4101    2.8183 N   0  0  0  0  0  0  0  0  0  0  0  0
  -23.4561    4.9644    2.6371 O   0  0  0  0  0  0  0  0  0  0  0  0
  -24.9460    7.4468    3.1212 C   0  0  0  0  0  0  0  0  0  0  0  0
  -26.1944    8.3537    3.2224 C   0  0  0  0  0  0  0  0  0  0  0  0
  -28.0367   11.4427    2.0183 C   0  0  0  0  0  0  0  0  0  0  0  0
  -28.7252   12.6393    2.0059 C   0  0  0  0  0  0  0  0  0  0  0  0
  -30.8692   16.9409    0.7013 H   0  0  0  0  0  0  0  0  0  0  0  0
  -31.8988   16.4628    2.0714 H   0  0  0  0  0  0  0  0  0  0  0  0
  -30.3427   17.2151    2.4506 H   0  0  0  0  0  0  0  0  0  0  0  0
  -30.2774   14.7371    2.7130 H   0  0  0  0  0  0  0  0  0  0  0  0
  -27.8056   13.5888   -1.1074 H   0  0  0  0  0  0  0  0  0  0  0  0
  -26.6338   11.4760   -0.9930 H   0  0  0  0  0  0  0  0  0  0  0  0
  -27.4046    8.8917    1.0725 H   0  0  0  0  0  0  0  0  0  0  0  0
  -23.8698   10.0702    0.4652 H   0  0  0  0  0  0  0  0  0  0  0  0
  -22.7327    9.4995   -1.5676 H   0  0  0  0  0  0  0  0  0  0  0  0
  -21.8205    8.9871   -3.3157 H   0  0  0  0  0  0  0  0  0  0  0  0
  -21.8389    7.0167   -5.2755 H   0  0  0  0  0  0  0  0  0  0  0  0
  -20.9292    8.5345   -5.5664 H   0  0  0  0  0  0  0  0  0  0  0  0
  -22.6420    8.3471   -6.1434 H   0  0  0  0  0  0  0  0  0  0  0  0
  -26.3825    7.9710   -3.1827 H   0  0  0  0  0  0  0  0  0  0  0  0
  -27.5009    8.5690   -1.1115 H   0  0  0  0  0  0  0  0  0  0  0  0
  -24.2627    9.6371    4.8014 H   0  0  0  0  0  0  0  0  0  0  0  0
  -22.9521   10.1809    3.6470 H   0  0  0  0  0  0  0  0  0  0  0  0
  -24.9560    7.0200    2.0918 H   0  0  0  0  0  0  0  0  0  0  0  0
  -25.0912    6.6348    3.8482 H   0  0  0  0  0  0  0  0  0  0  0  0
  -27.0365    7.7453    2.8471 H   0  0  0  0  0  0  0  0  0  0  0  0
  -26.2905    8.6547    4.2636 H   0  0  0  0  0  0  0  0  0  0  0  0
  -28.1105   10.8293    2.9280 H   0  0  0  0  0  0  0  0  0  0  0  0
  -29.3091   12.9502    2.8604 H   0  0  0  0  0  0  0  0  0  0  0  0
  -20.7096    6.5905    3.1959 H   0  0  0  0  0  0  0  0  0  0  0  0
  -23.6050    4.0150    2.3993 H   0  0  0  0  0  0  0  0  0  0  0  0
  1  2  1  0
  2  3  1  0
  3  4  2  0
  3  5  1  0
  5  6  2  0
  6  7  1  0
  7  8  2  0
  8  9  1  0
  9 10  1  0
 10 11  2  0
 11 12  1  0
 12 13  2  0
 13 14  1  0
 14 15  2  0
 14 16  1  0
 16 17  1  0
 13 18  1  0
 18 19  2  0
  9 20  1  0
 20 21  1  0
 21 22  2  0
 21 23  1  0
 23 24  1  0
 24 25  1  0
 25 26  2  0
 25 27  1  0
 27 28  2  3
 28 29  1  0
 24 30  1  0
 30 31  1  0
  8 32  1  0
 32 33  2  0
 33  5  1  0
 19 10  1  0
 31 20  1  0
  1 34  1  0
  1 35  1  0
  1 36  1  0
  2 37  1  0
  6 38  1  0
  7 39  1  0
  9 40  1  0
 11 41  1  0
 12 42  1  0
 16 43  1  0
 17 44  1  0
 17 45  1  0
 17 46  1  0
 18 47  1  0
 19 48  1  0
 23 49  1  0
 23 50  1  0
 30 51  1  0
 30 52  1  0
 31 53  1  0
 31 54  1  0
 32 55  1  0
 33 56  1  0
 27 57  1  0
 29 58  1  0
M  END
