
     RDKit          3D

 58 61  0  0  0  0  0  0  0  0999 V2000
    7.1728    3.8555   -1.2147 C   0  0  0  0  0  0  0  0  0  0  0  0
    6.1777    2.7704   -1.1230 C   0  0  0  0  0  0  0  0  0  0  0  0
    5.7430    2.4479    0.1254 O   0  0  0  0  0  0  0  0  0  0  0  0
    4.8237    1.4176    0.0471 N   0  0  0  0  0  0  0  0  0  0  0  0
    4.6964    1.1252   -1.2613 C   0  0  0  0  0  0  0  0  0  0  0  0
    3.8968    0.0014   -1.7510 C   0  0  0  0  0  0  0  0  0  0  0  0
    4.3826   -0.7490   -2.5972 O   0  0  0  0  0  0  0  0  0  0  0  0
    2.6034   -0.1930   -1.2536 N   0  0  0  0  0  0  0  0  0  0  0  0
    1.9920    0.6008   -0.1848 C   0  0  0  0  0  0  0  0  0  0  0  0
    0.4513    0.5916   -0.2382 C   0  0  0  0  0  0  0  0  0  0  0  0
   -0.1165   -0.7789   -0.3037 N   0  0  0  0  0  0  0  0  0  0  0  0
   -1.6119   -0.7387   -0.3618 C   0  0  0  0  0  0  0  0  0  0  0  0
   -2.2537   -2.1270   -0.4976 C   0  0  0  0  0  0  0  0  0  0  0  0
   -1.8685   -3.2038    0.3225 C   0  0  0  0  0  0  0  0  0  0  0  0
   -2.4745   -4.4558    0.1943 C   0  0  0  0  0  0  0  0  0  0  0  0
   -3.4752   -4.6362   -0.7536 C   0  0  0  0  0  0  0  0  0  0  0  0
   -4.0939   -5.8407   -0.9133 O   0  0  0  0  0  0  0  0  0  0  0  0
   -3.8786   -3.5882   -1.5709 C   0  0  0  0  0  0  0  0  0  0  0  0
   -3.2734   -2.3365   -1.4427 C   0  0  0  0  0  0  0  0  0  0  0  0
   -2.2520   -0.0004    0.8208 C   0  0  0  0  0  0  0  0  0  0  0  0
   -3.2731    0.9334    0.5952 C   0  0  0  0  0  0  0  0  0  0  0  0
   -3.8785    1.6101    1.6627 C   0  0  0  0  0  0  0  0  0  0  0  0
   -3.5117    1.3537    2.9873 C   0  0  0  0  0  0  0  0  0  0  0  0
   -4.0308    2.0488    4.0858 N   0  0  0  0  0  0  0  0  0  0  0  0
   -5.3199    2.7060    3.9657 C   0  0  0  0  0  0  0  0  0  0  0  0
   -2.4682    0.4444    3.2048 C   0  0  0  0  0  0  0  0  0  0  0  0
   -1.8587   -0.2366    2.1452 C   0  0  0  0  0  0  0  0  0  0  0  0
    0.4447   -1.4319   -1.5149 C   0  0  0  0  0  0  0  0  0  0  0  0
    1.9812   -1.4946   -1.4872 C   0  0  0  0  0  0  0  0  0  0  0  0
    5.5351    1.9624   -2.0293 C   0  0  0  0  0  0  0  0  0  0  0  0
    5.6771    2.0035   -3.4399 N   0  0  0  0  0  0  0  0  0  0  0  0
    4.6486    1.8478   -4.1070 O   0  0  0  0  0  0  0  0  0  0  0  0
    6.8047    2.2550   -3.8818 O   0  0  0  0  0  0  0  0  0  0  0  0
    8.1586    3.4490   -1.4598 H   0  0  0  0  0  0  0  0  0  0  0  0
    6.8916    4.5743   -1.9904 H   0  0  0  0  0  0  0  0  0  0  0  0
    7.2555    4.3994   -0.2684 H   0  0  0  0  0  0  0  0  0  0  0  0
    2.3248    1.6405   -0.2523 H   0  0  0  0  0  0  0  0  0  0  0  0
    2.3381    0.1865    0.7697 H   0  0  0  0  0  0  0  0  0  0  0  0
    0.1249    1.1746   -1.1104 H   0  0  0  0  0  0  0  0  0  0  0  0
    0.1036    1.1227    0.6537 H   0  0  0  0  0  0  0  0  0  0  0  0
   -1.8682   -0.1740   -1.2711 H   0  0  0  0  0  0  0  0  0  0  0  0
   -1.0827   -3.0679    1.0623 H   0  0  0  0  0  0  0  0  0  0  0  0
   -2.1537   -5.2679    0.8384 H   0  0  0  0  0  0  0  0  0  0  0  0
   -3.7221   -6.4648   -0.2688 H   0  0  0  0  0  0  0  0  0  0  0  0
   -4.6652   -3.7437   -2.3037 H   0  0  0  0  0  0  0  0  0  0  0  0
   -3.6067   -1.5248   -2.0849 H   0  0  0  0  0  0  0  0  0  0  0  0
   -3.6066    1.1510   -0.4168 H   0  0  0  0  0  0  0  0  0  0  0  0
   -4.6454    2.3419    1.4288 H   0  0  0  0  0  0  0  0  0  0  0  0
   -3.9487    1.5036    4.9408 H   0  0  0  0  0  0  0  0  0  0  0  0
   -5.2758    3.5495    3.2695 H   0  0  0  0  0  0  0  0  0  0  0  0
   -5.6094    3.1077    4.9421 H   0  0  0  0  0  0  0  0  0  0  0  0
   -6.0984    2.0041    3.6488 H   0  0  0  0  0  0  0  0  0  0  0  0
   -2.1146    0.2545    4.2152 H   0  0  0  0  0  0  0  0  0  0  0  0
   -1.0584   -0.9405    2.3603 H   0  0  0  0  0  0  0  0  0  0  0  0
    0.1253   -0.8932   -2.4173 H   0  0  0  0  0  0  0  0  0  0  0  0
    0.0883   -2.4628   -1.6083 H   0  0  0  0  0  0  0  0  0  0  0  0
    2.3149   -2.1576   -0.6789 H   0  0  0  0  0  0  0  0  0  0  0  0
    2.3384   -1.9265   -2.4283 H   0  0  0  0  0  0  0  0  0  0  0  0
  1  2  1  0
  2  3  1  0
  3  4  1  0
  4  5  2  0
  5  6  1  0
  6  7  2  0
  6  8  1  0
  8  9  1  0
  9 10  1  0
 10 11  1  0
 11 12  1  0
 12 13  1  0
 13 14  1  0
 14 15  2  0
 15 16  1  0
 16 17  1  0
 16 18  2  0
 18 19  1  0
 12 20  1  0
 20 21  1  0
 21 22  2  0
 22 23  1  0
 23 24  1  0
 24 25  1  0
 23 26  2  0
 26 27  1  0
 11 28  1  0
 28 29  1  0
  5 30  1  0
 30 31  1  0
 31 32  2  0
 31 33  1  0
 30  2  2  0
 29  8  1  0
 19 13  2  0
 27 20  2  0
  1 34  1  0
  1 35  1  0
  1 36  1  0
  9 37  1  0
  9 38  1  0
 10 39  1  0
 10 40  1  0
 12 41  1  0
 14 42  1  0
 15 43  1  0
 17 44  1  0
 18 45  1  0
 19 46  1  0
 21 47  1  0
 22 48  1  0
 24 49  1  0
 25 50  1  0
 25 51  1  0
 25 52  1  0
 26 53  1  0
 27 54  1  0
 28 55  1  0
 28 56  1  0
 29 57  1  0
 29 58  1  0
M  CHG  2  31   1  33  -1
M  END
$$$$
