
     RDKit          3D

 60 63  0  0  0  0  0  0  0  0999 V2000
    8.3457    1.5262    0.1324 C   0  0  0  0  0  0  0  0  0  0  0  0
    7.0226    0.9063    0.3355 C   0  0  0  0  0  0  0  0  0  0  0  0
    6.1992    1.5109    1.2344 O   0  0  0  0  0  0  0  0  0  0  0  0
    5.0071    0.8144    1.3165 N   0  0  0  0  0  0  0  0  0  0  0  0
    5.1108   -0.2128    0.4518 C   0  0  0  0  0  0  0  0  0  0  0  0
    4.0936   -1.2583    0.3320 C   0  0  0  0  0  0  0  0  0  0  0  0
    4.4521   -2.4354    0.3024 O   0  0  0  0  0  0  0  0  0  0  0  0
    2.7429   -0.9011    0.2497 N   0  0  0  0  0  0  0  0  0  0  0  0
    1.7542   -1.9503    0.4892 C   0  0  0  0  0  0  0  0  0  0  0  0
    0.4151   -1.6889   -0.2207 C   0  0  0  0  0  0  0  0  0  0  0  0
   -0.1406   -0.3474    0.0956 N   0  0  0  0  0  0  0  0  0  0  0  0
   -1.4440   -0.1287   -0.6067 C   0  0  0  0  0  0  0  0  0  0  0  0
   -2.5091   -1.1796   -0.2617 C   0  0  0  0  0  0  0  0  0  0  0  0
   -2.7698   -1.5606    1.0653 C   0  0  0  0  0  0  0  0  0  0  0  0
   -3.7574   -2.5037    1.3595 C   0  0  0  0  0  0  0  0  0  0  0  0
   -4.5181   -3.0772    0.3345 C   0  0  0  0  0  0  0  0  0  0  0  0
   -5.5631   -4.1144    0.6450 C   0  0  0  0  0  0  0  0  0  0  0  0
   -5.0184   -5.4224    0.5346 O   0  0  0  0  0  0  0  0  0  0  0  0
   -4.2599   -2.7076   -0.9909 C   0  0  0  0  0  0  0  0  0  0  0  0
   -3.2718   -1.7646   -1.2856 C   0  0  0  0  0  0  0  0  0  0  0  0
   -2.0306    1.2734   -0.3867 C   0  0  0  0  0  0  0  0  0  0  0  0
   -2.5407    1.9967   -1.4771 C   0  0  0  0  0  0  0  0  0  0  0  0
   -3.0966    3.2657   -1.2955 C   0  0  0  0  0  0  0  0  0  0  0  0
   -3.1524    3.8423   -0.0209 C   0  0  0  0  0  0  0  0  0  0  0  0
   -3.7871    5.1922    0.1758 C   0  0  0  0  0  0  0  0  0  0  0  0
   -5.1952    5.0668    0.3202 O   0  0  0  0  0  0  0  0  0  0  0  0
   -2.6627    3.1197    1.0729 C   0  0  0  0  0  0  0  0  0  0  0  0
   -2.1075    1.8509    0.8917 C   0  0  0  0  0  0  0  0  0  0  0  0
    0.8677    0.6580   -0.3250 C   0  0  0  0  0  0  0  0  0  0  0  0
    2.2321    0.4667    0.3670 C   0  0  0  0  0  0  0  0  0  0  0  0
    6.3694   -0.1829   -0.1882 C   0  0  0  0  0  0  0  0  0  0  0  0
    6.8647   -1.0590   -1.1874 N   0  0  0  0  0  0  0  0  0  0  0  0
    6.0580   -1.4379   -2.0436 O   0  0  0  0  0  0  0  0  0  0  0  0
    8.0739   -1.3176   -1.1558 O   0  0  0  0  0  0  0  0  0  0  0  0
    8.5653    1.6295   -0.9347 H   0  0  0  0  0  0  0  0  0  0  0  0
    8.3902    2.5234    0.5814 H   0  0  0  0  0  0  0  0  0  0  0  0
    9.1282    0.9129    0.5894 H   0  0  0  0  0  0  0  0  0  0  0  0
    1.5996   -2.0018    1.5744 H   0  0  0  0  0  0  0  0  0  0  0  0
    2.1433   -2.9235    0.1711 H   0  0  0  0  0  0  0  0  0  0  0  0
    0.5592   -1.7924   -1.3047 H   0  0  0  0  0  0  0  0  0  0  0  0
   -0.2692   -2.4836    0.0935 H   0  0  0  0  0  0  0  0  0  0  0  0
   -1.2323   -0.2243   -1.6825 H   0  0  0  0  0  0  0  0  0  0  0  0
   -2.1923   -1.1274    1.8791 H   0  0  0  0  0  0  0  0  0  0  0  0
   -3.9291   -2.7858    2.3963 H   0  0  0  0  0  0  0  0  0  0  0  0
   -5.9524   -3.9849    1.6603 H   0  0  0  0  0  0  0  0  0  0  0  0
   -6.4114   -4.0287   -0.0422 H   0  0  0  0  0  0  0  0  0  0  0  0
   -4.0601   -5.3337    0.3949 H   0  0  0  0  0  0  0  0  0  0  0  0
   -4.8315   -3.1524   -1.8034 H   0  0  0  0  0  0  0  0  0  0  0  0
   -3.1033   -1.4883   -2.3241 H   0  0  0  0  0  0  0  0  0  0  0  0
   -2.5166    1.5728   -2.4786 H   0  0  0  0  0  0  0  0  0  0  0  0
   -3.4945    3.8014   -2.1553 H   0  0  0  0  0  0  0  0  0  0  0  0
   -3.5790    5.8470   -0.6769 H   0  0  0  0  0  0  0  0  0  0  0  0
   -3.3887    5.6846    1.0691 H   0  0  0  0  0  0  0  0  0  0  0  0
   -5.4045    4.1180    0.3726 H   0  0  0  0  0  0  0  0  0  0  0  0
   -2.7134    3.5379    2.0762 H   0  0  0  0  0  0  0  0  0  0  0  0
   -1.7270    1.3111    1.7563 H   0  0  0  0  0  0  0  0  0  0  0  0
    0.5361    1.6742   -0.0889 H   0  0  0  0  0  0  0  0  0  0  0  0
    1.0141    0.6094   -1.4128 H   0  0  0  0  0  0  0  0  0  0  0  0
    2.1470    0.6940    1.4365 H   0  0  0  0  0  0  0  0  0  0  0  0
    2.9384    1.1708   -0.0820 H   0  0  0  0  0  0  0  0  0  0  0  0
  1  2  1  0
  2  3  1  0
  3  4  1  0
  4  5  2  0
  5  6  1  0
  6  7  2  0
  6  8  1  0
  8  9  1  0
  9 10  1  0
 10 11  1  0
 11 12  1  0
 12 13  1  0
 13 14  1  0
 14 15  2  0
 15 16  1  0
 16 17  1  0
 17 18  1  0
 16 19  2  0
 19 20  1  0
 12 21  1  0
 21 22  1  0
 22 23  2  0
 23 24  1  0
 24 25  1  0
 25 26  1  0
 24 27  2  0
 27 28  1  0
 11 29  1  0
 29 30  1  0
  5 31  1  0
 31 32  1  0
 32 33  2  0
 32 34  1  0
 31  2  2  0
 30  8  1  0
 20 13  2  0
 28 21  2  0
  1 35  1  0
  1 36  1  0
  1 37  1  0
  9 38  1  0
  9 39  1  0
 10 40  1  0
 10 41  1  0
 12 42  1  0
 14 43  1  0
 15 44  1  0
 17 45  1  0
 17 46  1  0
 18 47  1  0
 19 48  1  0
 20 49  1  0
 22 50  1  0
 23 51  1  0
 25 52  1  0
 25 53  1  0
 26 54  1  0
 27 55  1  0
 28 56  1  0
 29 57  1  0
 29 58  1  0
 30 59  1  0
 30 60  1  0
M  CHG  2  32   1  34  -1
M  END
$$$$
