
     RDKit          3D

 60 63  0  0  0  0  0  0  0  0999 V2000
    7.7138    1.6091    0.3661 C   0  0  0  0  0  0  0  0  0  0  0  0
    6.6076    0.8225   -0.2115 C   0  0  0  0  0  0  0  0  0  0  0  0
    6.4152    0.9376   -1.5542 O   0  0  0  0  0  0  0  0  0  0  0  0
    5.3463    0.1483   -1.9418 N   0  0  0  0  0  0  0  0  0  0  0  0
    4.8973   -0.4483   -0.8217 C   0  0  0  0  0  0  0  0  0  0  0  0
    3.8376   -1.4551   -0.8344 C   0  0  0  0  0  0  0  0  0  0  0  0
    3.9664   -2.4769   -0.1616 O   0  0  0  0  0  0  0  0  0  0  0  0
    2.7089   -1.2293   -1.6307 N   0  0  0  0  0  0  0  0  0  0  0  0
    2.1733    0.1114   -1.8729 C   0  0  0  0  0  0  0  0  0  0  0  0
    1.1000    0.4516   -0.8124 C   0  0  0  0  0  0  0  0  0  0  0  0
    0.0000   -0.5537   -0.7617 N   0  0  0  0  0  0  0  0  0  0  0  0
   -0.9705   -0.2329    0.3310 C   0  0  0  0  0  0  0  0  0  0  0  0
   -1.5744    1.1763    0.2263 C   0  0  0  0  0  0  0  0  0  0  0  0
   -2.0739    1.6792   -0.9875 C   0  0  0  0  0  0  0  0  0  0  0  0
   -2.6341    2.9572   -1.0553 C   0  0  0  0  0  0  0  0  0  0  0  0
   -2.7219    3.7502    0.0934 C   0  0  0  0  0  0  0  0  0  0  0  0
   -3.3261    5.1033   -0.0285 C   0  0  0  0  0  0  0  0  0  0  0  0
   -3.8478    5.6653    1.1043 N   0  0  0  0  0  0  0  0  0  0  0  0
   -3.3904    5.6858   -1.1034 O   0  0  0  0  0  0  0  0  0  0  0  0
   -2.2248    3.2638    1.3075 C   0  0  0  0  0  0  0  0  0  0  0  0
   -1.6608    1.9853    1.3727 C   0  0  0  0  0  0  0  0  0  0  0  0
   -2.1091   -1.2561    0.4563 C   0  0  0  0  0  0  0  0  0  0  0  0
   -2.8409   -1.6887   -0.6639 C   0  0  0  0  0  0  0  0  0  0  0  0
   -3.8884   -2.6052   -0.5285 C   0  0  0  0  0  0  0  0  0  0  0  0
   -4.2294   -3.0969    0.7358 C   0  0  0  0  0  0  0  0  0  0  0  0
   -5.3349   -4.0717    0.9362 C   0  0  0  0  0  0  0  0  0  0  0  0
   -6.3071   -4.1321   -0.0240 N   0  0  0  0  0  0  0  0  0  0  0  0
   -5.4015   -4.7732    1.9376 O   0  0  0  0  0  0  0  0  0  0  0  0
   -3.5007   -2.6818    1.8560 C   0  0  0  0  0  0  0  0  0  0  0  0
   -2.4546   -1.7652    1.7191 C   0  0  0  0  0  0  0  0  0  0  0  0
    0.5969   -1.9076   -0.5544 C   0  0  0  0  0  0  0  0  0  0  0  0
    1.6608   -2.2447   -1.6186 C   0  0  0  0  0  0  0  0  0  0  0  0
    5.6590   -0.0342    0.2911 C   0  0  0  0  0  0  0  0  0  0  0  0
    5.4698   -0.3782    1.6533 N   0  0  0  0  0  0  0  0  0  0  0  0
    4.2995   -0.4609    2.0448 O   0  0  0  0  0  0  0  0  0  0  0  0
    6.4852   -0.4994    2.3484 O   0  0  0  0  0  0  0  0  0  0  0  0
    7.3777    2.1568    1.2519 H   0  0  0  0  0  0  0  0  0  0  0  0
    8.1001    2.3387   -0.3525 H   0  0  0  0  0  0  0  0  0  0  0  0
    8.5378    0.9509    0.6578 H   0  0  0  0  0  0  0  0  0  0  0  0
    2.9494    0.8779   -1.8459 H   0  0  0  0  0  0  0  0  0  0  0  0
    1.7321    0.1190   -2.8767 H   0  0  0  0  0  0  0  0  0  0  0  0
    0.7093    1.4423   -1.0650 H   0  0  0  0  0  0  0  0  0  0  0  0
    1.5839    0.5266    0.1709 H   0  0  0  0  0  0  0  0  0  0  0  0
   -0.3974   -0.2674    1.2699 H   0  0  0  0  0  0  0  0  0  0  0  0
   -2.0155    1.0794   -1.8933 H   0  0  0  0  0  0  0  0  0  0  0  0
   -3.0052    3.3315   -2.0076 H   0  0  0  0  0  0  0  0  0  0  0  0
   -4.0827    5.1096    1.9139 H   0  0  0  0  0  0  0  0  0  0  0  0
   -4.3713    6.5206    0.9646 H   0  0  0  0  0  0  0  0  0  0  0  0
   -2.2462    3.8725    2.2067 H   0  0  0  0  0  0  0  0  0  0  0  0
   -1.2837    1.6251    2.3281 H   0  0  0  0  0  0  0  0  0  0  0  0
   -2.5824   -1.3224   -1.6555 H   0  0  0  0  0  0  0  0  0  0  0  0
   -4.4061   -2.9402   -1.4220 H   0  0  0  0  0  0  0  0  0  0  0  0
   -6.4451   -3.3890   -0.6932 H   0  0  0  0  0  0  0  0  0  0  0  0
   -7.1099   -4.7058    0.2023 H   0  0  0  0  0  0  0  0  0  0  0  0
   -3.7495   -3.0700    2.8422 H   0  0  0  0  0  0  0  0  0  0  0  0
   -1.9106   -1.4545    2.6087 H   0  0  0  0  0  0  0  0  0  0  0  0
    1.0528   -1.9682    0.4429 H   0  0  0  0  0  0  0  0  0  0  0  0
   -0.1730   -2.6833   -0.6157 H   0  0  0  0  0  0  0  0  0  0  0  0
    1.2058   -2.2677   -2.6163 H   0  0  0  0  0  0  0  0  0  0  0  0
    2.0834   -3.2371   -1.4291 H   0  0  0  0  0  0  0  0  0  0  0  0
  1  2  1  0
  2  3  1  0
  3  4  1  0
  4  5  2  0
  5  6  1  0
  6  7  2  0
  6  8  1  0
  8  9  1  0
  9 10  1  0
 10 11  1  0
 11 12  1  0
 12 13  1  0
 13 14  1  0
 14 15  2  0
 15 16  1  0
 16 17  1  0
 17 18  1  0
 17 19  2  0
 16 20  2  0
 20 21  1  0
 12 22  1  0
 22 23  1  0
 23 24  2  0
 24 25  1  0
 25 26  1  0
 26 27  1  0
 26 28  2  0
 25 29  2  0
 29 30  1  0
 11 31  1  0
 31 32  1  0
  5 33  1  0
 33 34  1  0
 34 35  2  0
 34 36  1  0
 33  2  2  0
 32  8  1  0
 21 13  2  0
 30 22  2  0
  1 37  1  0
  1 38  1  0
  1 39  1  0
  9 40  1  0
  9 41  1  0
 10 42  1  0
 10 43  1  0
 12 44  1  0
 14 45  1  0
 15 46  1  0
 18 47  1  0
 18 48  1  0
 20 49  1  0
 21 50  1  0
 23 51  1  0
 24 52  1  0
 27 53  1  0
 27 54  1  0
 29 55  1  0
 30 56  1  0
 31 57  1  0
 31 58  1  0
 32 59  1  0
 32 60  1  0
M  CHG  2  34   1  36  -1
M  END
$$$$
