
     RDKit          3D

 52 55  0  0  0  0  0  0  0  0999 V2000
    7.4169    2.2602    0.3612 C   0  0  0  0  0  0  0  0  0  0  0  0
    6.1401    1.5573    0.5889 C   0  0  0  0  0  0  0  0  0  0  0  0
    5.2143    2.2075    1.3451 O   0  0  0  0  0  0  0  0  0  0  0  0
    4.0816    1.4238    1.4711 N   0  0  0  0  0  0  0  0  0  0  0  0
    4.3249    0.2961    0.7765 C   0  0  0  0  0  0  0  0  0  0  0  0
    3.4079   -0.8446    0.7645 C   0  0  0  0  0  0  0  0  0  0  0  0
    3.8642   -1.9759    0.9286 O   0  0  0  0  0  0  0  0  0  0  0  0
    2.0397   -0.6283    0.5636 N   0  0  0  0  0  0  0  0  0  0  0  0
    1.1290   -1.7174    0.9103 C   0  0  0  0  0  0  0  0  0  0  0  0
   -0.1801   -1.6865    0.1036 C   0  0  0  0  0  0  0  0  0  0  0  0
   -0.8652   -0.3695    0.1847 N   0  0  0  0  0  0  0  0  0  0  0  0
   -2.1350   -0.3770   -0.6052 C   0  0  0  0  0  0  0  0  0  0  0  0
   -3.1299   -1.4571   -0.1539 C   0  0  0  0  0  0  0  0  0  0  0  0
   -3.4331   -1.6619    1.2047 C   0  0  0  0  0  0  0  0  0  0  0  0
   -4.3561   -2.6358    1.5928 C   0  0  0  0  0  0  0  0  0  0  0  0
   -4.9903   -3.4111    0.6260 C   0  0  0  0  0  0  0  0  0  0  0  0
   -6.1271   -4.6113    1.1026 Cl  0  0  0  0  0  0  0  0  0  0  0  0
   -4.7106   -3.2209   -0.7250 C   0  0  0  0  0  0  0  0  0  0  0  0
   -3.7870   -2.2470   -1.1140 C   0  0  0  0  0  0  0  0  0  0  0  0
   -2.8495    0.9830   -0.6284 C   0  0  0  0  0  0  0  0  0  0  0  0
   -3.0538    1.7308    0.5458 C   0  0  0  0  0  0  0  0  0  0  0  0
   -3.7225    2.9565    0.5060 C   0  0  0  0  0  0  0  0  0  0  0  0
   -4.1995    3.4443   -0.7074 C   0  0  0  0  0  0  0  0  0  0  0  0
   -5.0220    4.9546   -0.7583 Cl  0  0  0  0  0  0  0  0  0  0  0  0
   -4.0151    2.7173   -1.8810 C   0  0  0  0  0  0  0  0  0  0  0  0
   -3.3457    1.4913   -1.8420 C   0  0  0  0  0  0  0  0  0  0  0  0
    0.0814    0.6513   -0.3324 C   0  0  0  0  0  0  0  0  0  0  0  0
    1.4108    0.6893    0.4478 C   0  0  0  0  0  0  0  0  0  0  0  0
    5.6142    0.3485    0.2025 C   0  0  0  0  0  0  0  0  0  0  0  0
    6.2422   -0.6137   -0.6289 N   0  0  0  0  0  0  0  0  0  0  0  0
    5.5246   -1.1848   -1.4574 O   0  0  0  0  0  0  0  0  0  0  0  0
    7.4644   -0.7531   -0.4995 O   0  0  0  0  0  0  0  0  0  0  0  0
    7.6934    2.2278   -0.6971 H   0  0  0  0  0  0  0  0  0  0  0  0
    8.2177    1.7938    0.9430 H   0  0  0  0  0  0  0  0  0  0  0  0
    7.3498    3.3117    0.6578 H   0  0  0  0  0  0  0  0  0  0  0  0
    1.6169   -2.6869    0.7629 H   0  0  0  0  0  0  0  0  0  0  0  0
    0.9116   -1.6232    1.9818 H   0  0  0  0  0  0  0  0  0  0  0  0
   -0.8143   -2.4860    0.4999 H   0  0  0  0  0  0  0  0  0  0  0  0
    0.0398   -1.9338   -0.9439 H   0  0  0  0  0  0  0  0  0  0  0  0
   -1.8514   -0.6111   -1.6425 H   0  0  0  0  0  0  0  0  0  0  0  0
   -2.9406   -1.0650    1.9696 H   0  0  0  0  0  0  0  0  0  0  0  0
   -4.5743   -2.7816    2.6472 H   0  0  0  0  0  0  0  0  0  0  0  0
   -5.2094   -3.8236   -1.4793 H   0  0  0  0  0  0  0  0  0  0  0  0
   -3.5867   -2.1073   -2.1741 H   0  0  0  0  0  0  0  0  0  0  0  0
   -2.6821    1.3615    1.4993 H   0  0  0  0  0  0  0  0  0  0  0  0
   -3.8677    3.5210    1.4230 H   0  0  0  0  0  0  0  0  0  0  0  0
   -4.3926    3.0963   -2.8270 H   0  0  0  0  0  0  0  0  0  0  0  0
   -3.2182    0.9332   -2.7671 H   0  0  0  0  0  0  0  0  0  0  0  0
    0.2994    0.4573   -1.3916 H   0  0  0  0  0  0  0  0  0  0  0  0
   -0.3478    1.6564   -0.2699 H   0  0  0  0  0  0  0  0  0  0  0  0
    2.0828    1.3821   -0.0666 H   0  0  0  0  0  0  0  0  0  0  0  0
    1.2399    1.0614    1.4651 H   0  0  0  0  0  0  0  0  0  0  0  0
  1  2  1  0
  2  3  1  0
  3  4  1  0
  4  5  2  0
  5  6  1  0
  6  7  2  0
  6  8  1  0
  8  9  1  0
  9 10  1  0
 10 11  1  0
 11 12  1  0
 12 13  1  0
 13 14  1  0
 14 15  2  0
 15 16  1  0
 16 17  1  0
 16 18  2  0
 18 19  1  0
 12 20  1  0
 20 21  1  0
 21 22  2  0
 22 23  1  0
 23 24  1  0
 23 25  2  0
 25 26  1  0
 11 27  1  0
 27 28  1  0
  5 29  1  0
 29 30  1  0
 30 31  2  0
 30 32  1  0
 29  2  2  0
 28  8  1  0
 19 13  2  0
 26 20  2  0
  1 33  1  0
  1 34  1  0
  1 35  1  0
  9 36  1  0
  9 37  1  0
 10 38  1  0
 10 39  1  0
 12 40  1  0
 14 41  1  0
 15 42  1  0
 18 43  1  0
 19 44  1  0
 21 45  1  0
 22 46  1  0
 25 47  1  0
 26 48  1  0
 27 49  1  0
 27 50  1  0
 28 51  1  0
 28 52  1  0
M  CHG  2  30   1  32  -1
M  END
$$$$
