 xtb: 6.7.1 (edcfbbe)
          08282617193D

 60 64  0     0  0            999 V2000
    7.4404    1.6286    0.3313 C   0  0  0  0  0  0  0  0  0  0  0  0
    6.4825    0.8086   -0.4158 C   0  0  0  0  0  0  0  0  0  0  0  0
    6.5593    0.7302   -1.7344 O   0  0  0  0  0  0  0  0  0  0  0  0
    5.5873   -0.0921   -2.2331 N   0  0  0  0  0  0  0  0  0  0  0  0
    4.8806   -0.5157   -1.2277 C   0  0  0  0  0  0  0  0  0  0  0  0
    3.8477   -1.5998   -1.3018 C   0  0  0  0  0  0  0  0  0  0  0  0
    4.2312   -2.7470   -1.0809 O   0  0  0  0  0  0  0  0  0  0  0  0
    2.6060   -1.2526   -1.6138 N   0  0  0  0  0  0  0  0  0  0  0  0
    2.1190    0.1067   -1.6772 C   0  0  0  0  0  0  0  0  0  0  0  0
    1.2606    0.3875   -0.4413 C   0  0  0  0  0  0  0  0  0  0  0  0
    0.1539   -0.5532   -0.4104 N   0  0  0  0  0  0  0  0  0  0  0  0
   -0.7964   -0.2376    0.6501 C   0  0  0  0  0  0  0  0  0  0  0  0
   -1.4112    1.1316    0.4545 C   0  0  0  0  0  0  0  0  0  0  0  0
   -1.7132    1.6014   -0.8191 C   0  0  0  0  0  0  0  0  0  0  0  0
   -2.3113    2.8343   -0.9829 C   0  0  0  0  0  0  0  0  0  0  0  0
   -2.6478    3.6117    0.1222 C   0  0  0  0  0  0  0  0  0  0  0  0
   -3.2878    4.9364   -0.1132 C   0  0  0  0  0  0  0  0  0  0  0  0
   -4.1279    5.3656    0.8405 N   0  0  0  0  0  0  0  0  0  0  0  0
   -3.0591    5.5960   -1.1267 O   0  0  0  0  0  0  0  0  0  0  0  0
   -2.3455    3.1429    1.3971 C   0  0  0  0  0  0  0  0  0  0  0  0
   -1.7282    1.9159    1.5560 C   0  0  0  0  0  0  0  0  0  0  0  0
   -1.9589   -1.2058    0.6641 C   0  0  0  0  0  0  0  0  0  0  0  0
   -2.5350   -1.6395   -0.5249 C   0  0  0  0  0  0  0  0  0  0  0  0
   -3.6240   -2.4888   -0.5125 C   0  0  0  0  0  0  0  0  0  0  0  0
   -4.1662   -2.9156    0.6977 C   0  0  0  0  0  0  0  0  0  0  0  0
   -5.3289   -3.8429    0.7823 C   0  0  0  0  0  0  0  0  0  0  0  0
   -6.1857   -3.8233   -0.2492 N   0  0  0  0  0  0  0  0  0  0  0  0
   -5.4970   -4.5835    1.7517 O   0  0  0  0  0  0  0  0  0  0  0  0
   -3.5826   -2.4886    1.8867 C   0  0  0  0  0  0  0  0  0  0  0  0
   -2.4940   -1.6387    1.8702 C   0  0  0  0  0  0  0  0  0  0  0  0
    0.6838   -1.9030   -0.2901 C   0  0  0  0  0  0  0  0  0  0  0  0
    1.5306   -2.2199   -1.5215 C   0  0  0  0  0  0  0  0  0  0  0  0
    5.4049    0.0252   -0.0103 C   0  0  0  0  0  0  0  0  0  0  0  0
    4.8938   -0.1649    1.2738 N   0  0  0  0  0  0  0  0  0  0  0  0
    3.8113   -0.7273    1.3783 O   0  0  0  0  0  0  0  0  0  0  0  0
    5.5341    0.2580    2.2238 O   0  0  0  0  0  0  0  0  0  0  0  0
    6.9666    2.0416    1.2187 H   0  0  0  0  0  0  0  0  0  0  0  0
    7.8409    2.4073   -0.3106 H   0  0  0  0  0  0  0  0  0  0  0  0
    8.2639    0.9987    0.6698 H   0  0  0  0  0  0  0  0  0  0  0  0
    2.9524    0.8052   -1.7346 H   0  0  0  0  0  0  0  0  0  0  0  0
    1.5040    0.2042   -2.5742 H   0  0  0  0  0  0  0  0  0  0  0  0
    0.8712    1.4047   -0.4908 H   0  0  0  0  0  0  0  0  0  0  0  0
    1.8872    0.2897    0.4649 H   0  0  0  0  0  0  0  0  0  0  0  0
   -0.2988   -0.2683    1.6383 H   0  0  0  0  0  0  0  0  0  0  0  0
   -1.4590    1.0017   -1.6772 H   0  0  0  0  0  0  0  0  0  0  0  0
   -2.5332    3.2187   -1.9672 H   0  0  0  0  0  0  0  0  0  0  0  0
   -4.3717    4.7869    1.6249 H   0  0  0  0  0  0  0  0  0  0  0  0
   -4.5986    6.2465    0.7107 H   0  0  0  0  0  0  0  0  0  0  0  0
   -2.5548    3.7439    2.2684 H   0  0  0  0  0  0  0  0  0  0  0  0
   -1.4866    1.5657    2.5486 H   0  0  0  0  0  0  0  0  0  0  0  0
   -2.1098   -1.3182   -1.4613 H   0  0  0  0  0  0  0  0  0  0  0  0
   -4.0262   -2.8406   -1.4494 H   0  0  0  0  0  0  0  0  0  0  0  0
   -6.0927   -3.1626   -1.0005 H   0  0  0  0  0  0  0  0  0  0  0  0
   -6.9918   -4.4260   -0.2156 H   0  0  0  0  0  0  0  0  0  0  0  0
   -3.9983   -2.8405    2.8192 H   0  0  0  0  0  0  0  0  0  0  0  0
   -2.0525   -1.3181    2.8020 H   0  0  0  0  0  0  0  0  0  0  0  0
    1.3129   -2.0076    0.6123 H   0  0  0  0  0  0  0  0  0  0  0  0
   -0.1399   -2.6132   -0.2234 H   0  0  0  0  0  0  0  0  0  0  0  0
    0.9210   -2.1453   -2.4232 H   0  0  0  0  0  0  0  0  0  0  0  0
    1.9681   -3.2152   -1.4435 H   0  0  0  0  0  0  0  0  0  0  0  0
  1  2  1  0  0  0  0
  2  3  4  0  0  0  0
  3  4  1  0  0  0  0
  4  5  2  0  0  0  0
  5  6  1  0  0  0  0
  6  7  2  0  0  0  0
  6  8  4  0  0  0  0
  8  9  1  0  0  0  0
  9 10  1  0  0  0  0
 10 11  1  0  0  0  0
 11 12  1  0  0  0  0
 12 13  1  0  0  0  0
 13 14  4  0  0  0  0
 14 15  4  0  0  0  0
 15 16  4  0  0  0  0
 16 17  1  0  0  0  0
 17 18  4  0  0  0  0
 17 19  2  0  0  0  0
 16 20  4  0  0  0  0
 13 21  4  0  0  0  0
 20 21  4  0  0  0  0
 12 22  1  0  0  0  0
 22 23  4  0  0  0  0
 23 24  4  0  0  0  0
 24 25  4  0  0  0  0
 25 26  1  0  0  0  0
 26 27  4  0  0  0  0
 26 28  2  0  0  0  0
 25 29  4  0  0  0  0
 22 30  4  0  0  0  0
 29 30  4  0  0  0  0
 11 31  1  0  0  0  0
  8 32  1  0  0  0  0
 31 32  1  0  0  0  0
  2 33  4  0  0  0  0
  5 33  4  0  0  0  0
 33 34  1  0  0  0  0
 34 35  4  0  0  0  0
 34 36  4  0  0  0  0
 35 36  1  0  0  0  0
  1 37  1  0  0  0  0
  1 38  1  0  0  0  0
  1 39  1  0  0  0  0
  9 40  1  0  0  0  0
  9 41  1  0  0  0  0
 10 42  1  0  0  0  0
 10 43  1  0  0  0  0
 12 44  1  0  0  0  0
 14 45  1  0  0  0  0
 15 46  1  0  0  0  0
 18 47  1  0  0  0  0
 18 48  1  0  0  0  0
 20 49  1  0  0  0  0
 21 50  1  0  0  0  0
 23 51  1  0  0  0  0
 24 52  1  0  0  0  0
 27 53  1  0  0  0  0
 27 54  1  0  0  0  0
 29 55  1  0  0  0  0
 30 56  1  0  0  0  0
 31 57  1  0  0  0  0
 31 58  1  0  0  0  0
 32 59  1  0  0  0  0
 32 60  1  0  0  0  0
M  END
