 xtb: 6.7.1 (edcfbbe)
          08282623303D

 19 18  0     0  0            999 V2000
   -2.8276    0.2129   -0.6040 C   0  0  0  0  0  0  0  0  0  0  0  0
   -1.4501    0.3542   -0.1561 N   0  0  0  0  0  0  0  0  0  0  0  0
   -0.9845    1.7277   -0.0304 C   0  0  0  0  0  0  0  0  0  0  0  0
   -0.6003   -0.6877   -0.4300 C   0  0  0  0  0  0  0  0  0  0  0  0
   -1.0304   -1.6969   -1.0101 O   0  0  0  0  0  0  0  0  0  0  0  0
    0.7885   -0.5930    0.0295 C   0  0  0  0  0  0  0  0  0  0  0  0
    1.2802   -0.0401    1.1065 N   0  0  0  0  0  0  0  0  0  0  0  0
    0.4710    0.6047    1.9233 O   0  0  0  0  0  0  0  0  0  0  0  0
    1.9099   -1.5631   -0.9536 S   0  0  0  0  0  0  0  0  0  0  0  0
    3.4120   -1.3046    0.0220 C   0  0  0  0  0  0  0  0  0  0  0  0
   -3.4611    0.8875   -0.0294 H   0  0  0  0  0  0  0  0  0  0  0  0
   -2.9210    0.4527   -1.6675 H   0  0  0  0  0  0  0  0  0  0  0  0
   -3.1531   -0.8151   -0.4428 H   0  0  0  0  0  0  0  0  0  0  0  0
   -1.2062    2.1158    0.9657 H   0  0  0  0  0  0  0  0  0  0  0  0
   -1.4883    2.3475   -0.7765 H   0  0  0  0  0  0  0  0  0  0  0  0
    0.0901    1.7729   -0.2033 H   0  0  0  0  0  0  0  0  0  0  0  0
    3.3021   -1.7061    1.0294 H   0  0  0  0  0  0  0  0  0  0  0  0
    3.6532   -0.2443    0.0944 H   0  0  0  0  0  0  0  0  0  0  0  0
    4.2158   -1.8250   -0.4920 H   0  0  0  0  0  0  0  0  0  0  0  0
  1  2  1  0  0  0  0
  2  3  1  0  0  0  0
  2  4  1  0  0  0  0
  4  5  2  0  0  0  0
  4  6  1  0  0  0  0
  6  7  2  0  0  0  0
  7  8  4  0  0  0  0
  6  9  1  0  0  0  0
  9 10  1  0  0  0  0
  1 11  1  0  0  0  0
  1 12  1  0  0  0  0
  1 13  1  0  0  0  0
  3 14  1  0  0  0  0
  3 15  1  0  0  0  0
  3 16  1  0  0  0  0
 10 17  1  0  0  0  0
 10 18  1  0  0  0  0
 10 19  1  0  0  0  0
M  CHG  1   1  -1
M  END
